10160616
ChemmineR-0425141737XD

 50 52  0     1  0  0  0  0  0999 V2000
   14.2521    3.3034    0.0000 Br   0  0  0  0  0  0  0  0  0  0  0  0
   13.0094   -2.1081    0.0000 S    0  0  0  0  0  0  0  0  0  0  0  0
    2.5369   -3.3034    0.0000 O    0  0  0  0  0  0  0  0  0  0  0  0
    5.1350   -2.8034    0.0000 N    0  0  3  0  0  0  0  0  0  0  0  0
   13.5930   -1.3034    0.0000 N    0  0  0  0  0  0  0  0  0  0  0  0
    6.0010   -3.3034    0.0000 C    0  0  0  0  0  0  0  0  0  0  0  0
    6.8671   -2.8034    0.0000 C    0  0  0  0  0  0  0  0  0  0  0  0
    4.2690   -3.3034    0.0000 C    0  0  0  0  0  0  0  0  0  0  0  0
    5.1350   -1.8034    0.0000 C    0  0  0  0  0  0  0  0  0  0  0  0
    7.7331   -3.3034    0.0000 C    0  0  0  0  0  0  0  0  0  0  0  0
    3.4030   -2.8034    0.0000 C    0  0  0  0  0  0  0  0  0  0  0  0
    4.2690   -1.3034    0.0000 C    0  0  0  0  0  0  0  0  0  0  0  0
   12.0632   -0.8034    0.0000 C    0  0  0  0  0  0  0  0  0  0  0  0
   12.0632   -1.8034    0.0000 C    0  0  0  0  0  0  0  0  0  0  0  0
   13.0094   -0.4987    0.0000 C    0  0  0  0  0  0  0  0  0  0  0  0
    8.5991   -2.8034    0.0000 C    0  0  0  0  0  0  0  0  0  0  0  0
   10.3312   -1.8034    0.0000 C    0  0  0  0  0  0  0  0  0  0  0  0
   11.1972   -2.3034    0.0000 C    0  0  0  0  0  0  0  0  0  0  0  0
   11.1972   -0.3034    0.0000 C    0  0  0  0  0  0  0  0  0  0  0  0
   13.3201    0.4518    0.0000 C    0  0  0  0  0  0  0  0  0  0  0  0
   10.3312   -0.8034    0.0000 C    0  0  0  0  0  0  0  0  0  0  0  0
    9.4651   -2.3034    0.0000 C    0  0  0  0  0  0  0  0  0  0  0  0
   14.2986    0.6581    0.0000 C    0  0  0  0  0  0  0  0  0  0  0  0
   12.6523    1.1962    0.0000 C    0  0  0  0  0  0  0  0  0  0  0  0
   14.6093    1.6086    0.0000 C    0  0  0  0  0  0  0  0  0  0  0  0
   12.9629    2.1467    0.0000 C    0  0  0  0  0  0  0  0  0  0  0  0
   13.9414    2.3529    0.0000 C    0  0  0  0  0  0  0  0  0  0  0  0
    5.6025   -3.7784    0.0000 H    0  0  0  0  0  0  0  0  0  0  0  0
    6.3996   -3.7784    0.0000 H    0  0  0  0  0  0  0  0  0  0  0  0
    7.2656   -2.3285    0.0000 H    0  0  0  0  0  0  0  0  0  0  0  0
    6.4685   -2.3285    0.0000 H    0  0  0  0  0  0  0  0  0  0  0  0
    3.8705   -3.7784    0.0000 H    0  0  0  0  0  0  0  0  0  0  0  0
    4.6675   -3.7784    0.0000 H    0  0  0  0  0  0  0  0  0  0  0  0
    5.7456   -1.9111    0.0000 H    0  0  0  0  0  0  0  0  0  0  0  0
    5.3471   -1.2208    0.0000 H    0  0  0  0  0  0  0  0  0  0  0  0
    7.3346   -3.7784    0.0000 H    0  0  0  0  0  0  0  0  0  0  0  0
    8.1316   -3.7784    0.0000 H    0  0  0  0  0  0  0  0  0  0  0  0
    3.8015   -2.3285    0.0000 H    0  0  0  0  0  0  0  0  0  0  0  0
    3.0044   -2.3285    0.0000 H    0  0  0  0  0  0  0  0  0  0  0  0
    4.5790   -0.7665    0.0000 H    0  0  0  0  0  0  0  0  0  0  0  0
    3.7320   -0.9934    0.0000 H    0  0  0  0  0  0  0  0  0  0  0  0
    3.9590   -1.8403    0.0000 H    0  0  0  0  0  0  0  0  0  0  0  0
   11.1972   -2.9234    0.0000 H    0  0  0  0  0  0  0  0  0  0  0  0
   11.1972    0.3166    0.0000 H    0  0  0  0  0  0  0  0  0  0  0  0
    9.7942   -0.4934    0.0000 H    0  0  0  0  0  0  0  0  0  0  0  0
    2.0000   -2.9934    0.0000 H    0  0  0  0  0  0  0  0  0  0  0  0
   14.7127    0.1966    0.0000 H    0  0  0  0  0  0  0  0  0  0  0  0
   12.0456    1.0683    0.0000 H    0  0  0  0  0  0  0  0  0  0  0  0
   15.2159    1.7364    0.0000 H    0  0  0  0  0  0  0  0  0  0  0  0
   12.5489    2.6081    0.0000 H    0  0  0  0  0  0  0  0  0  0  0  0
  1 27  1  0  0  0  0
  2  5  1  0  0  0  0
  2 14  1  0  0  0  0
  3 11  1  0  0  0  0
  3 46  1  0  0  0  0
  4  6  1  0  0  0  0
  4  8  1  0  0  0  0
  4  9  1  0  0  0  0
  5 15  2  0  0  0  0
  6  7  1  0  0  0  0
  6 28  1  0  0  0  0
  6 29  1  0  0  0  0
  7 10  1  0  0  0  0
  7 30  1  0  0  0  0
  7 31  1  0  0  0  0
  8 11  1  0  0  0  0
  8 32  1  0  0  0  0
  8 33  1  0  0  0  0
  9 12  1  0  0  0  0
  9 34  1  0  0  0  0
  9 35  1  0  0  0  0
 10 16  1  0  0  0  0
 10 36  1  0  0  0  0
 10 37  1  0  0  0  0
 11 38  1  0  0  0  0
 11 39  1  0  0  0  0
 12 40  1  0  0  0  0
 12 41  1  0  0  0  0
 12 42  1  0  0  0  0
 13 14  2  0  0  0  0
 13 15  1  0  0  0  0
 13 19  1  0  0  0  0
 14 18  1  0  0  0  0
 15 20  1  0  0  0  0
 16 22  3  0  0  0  0
 17 18  2  0  0  0  0
 17 21  1  0  0  0  0
 17 22  1  0  0  0  0
 18 43  1  0  0  0  0
 19 21  2  0  0  0  0
 19 44  1  0  0  0  0
 20 23  2  0  0  0  0
 20 24  1  0  0  0  0
 21 45  1  0  0  0  0
 23 25  1  0  0  0  0
 23 47  1  0  0  0  0
 24 26  2  0  0  0  0
 24 48  1  0  0  0  0
 25 27  2  0  0  0  0
 25 49  1  0  0  0  0
 26 27  1  0  0  0  0
 26 50  1  0  0  0  0
M  END
> <PUBCHEM_COMPOUND_CID>
10160616

> <PUBCHEM_COMPOUND_CANONICALIZED>
1

> <PUBCHEM_CACTVS_COMPLEXITY>
511

> <PUBCHEM_CACTVS_HBOND_ACCEPTOR>
4

> <PUBCHEM_CACTVS_HBOND_DONOR>
1

> <PUBCHEM_CACTVS_ROTATABLE_BOND>
8

> <PUBCHEM_CACTVS_SUBSKEYS>
AAADceB7IABAEAAAAAAAAAAAAAAAAWAAAAAwYAAAAAAAAFgB9AAAHgRASAABrAjh3gYygdMAAgDkEyRiQAiDABAgAARImDgoRLgKMKKAkZGEIARggACYyhcQgMAOQgAAgAAEAACEAAEAAAgAAAAAAAAAAA==

> <PUBCHEM_IUPAC_OPENEYE_NAME>
2-[5-[3-(4-bromophenyl)-1,2-benzothiazol-6-yl]pent-4-ynyl-ethyl-amino]ethanol

> <PUBCHEM_IUPAC_CAS_NAME>
2-[5-[3-(4-bromophenyl)-1,2-benzothiazol-6-yl]pent-4-ynyl-ethylamino]ethanol

> <PUBCHEM_IUPAC_NAME>
2-[5-[3-(4-bromophenyl)-1,2-benzothiazol-6-yl]pent-4-ynyl-ethylamino]ethanol

> <PUBCHEM_IUPAC_SYSTEMATIC_NAME>
2-[5-[3-(4-bromophenyl)-1,2-benzothiazol-6-yl]pent-4-ynyl-ethyl-amino]ethanol

> <PUBCHEM_IUPAC_TRADITIONAL_NAME>
2-[5-[3-(4-bromophenyl)-1,2-benzothiazol-6-yl]pent-4-ynyl-ethyl-amino]ethanol

> <PUBCHEM_IUPAC_INCHI>
InChI=1S/C22H23BrN2OS/c1-2-25(14-15-26)13-5-3-4-6-17-7-12-20-21(16-17)27-24-22(20)18-8-10-19(23)11-9-18/h7-12,16,26H,2-3,5,13-15H2,1H3

> <PUBCHEM_IUPAC_INCHIKEY>
WGFNYNVHQAKQPA-UHFFFAOYSA-N

> <PUBCHEM_XLOGP3_AA>
5.4

> <PUBCHEM_EXACT_MASS>
442.071446

> <PUBCHEM_MOLECULAR_FORMULA>
C22H23BrN2OS

> <PUBCHEM_MOLECULAR_WEIGHT>
443.39982

> <PUBCHEM_OPENEYE_CAN_SMILES>
CCN(CCCC#CC1=CC2=C(C=C1)C(=NS2)C3=CC=C(C=C3)Br)CCO

> <PUBCHEM_OPENEYE_ISO_SMILES>
CCN(CCCC#CC1=CC2=C(C=C1)C(=NS2)C3=CC=C(C=C3)Br)CCO

> <PUBCHEM_CACTVS_TPSA>
64.6

> <PUBCHEM_MONOISOTOPIC_WEIGHT>
442.071446

> <PUBCHEM_TOTAL_CHARGE>
0

> <PUBCHEM_HEAVY_ATOM_COUNT>
27

> <PUBCHEM_ATOM_DEF_STEREO_COUNT>
0

> <PUBCHEM_ATOM_UDEF_STEREO_COUNT>
0

> <PUBCHEM_BOND_DEF_STEREO_COUNT>
0

> <PUBCHEM_BOND_UDEF_STEREO_COUNT>
0

> <PUBCHEM_ISOTOPIC_ATOM_COUNT>
0

> <PUBCHEM_COMPONENT_COUNT>
1

> <PUBCHEM_CACTVS_TAUTO_COUNT>
1

> <PUBCHEM_COORDINATE_TYPE>
1 __ 5 __ 255

> <PUBCHEM_BONDANNOTATIONS>
13  14  8 __ 13  15  8 __ 13  19  8 __ 14  18  8 __ 17  18  8 __ 17  21  8 __ 19  21  8 __ 2  14  8 __ 2  5  8 __ 20  23  8 __ 20  24  8 __ 23  25  8 __ 24  26  8 __ 25  27  8 __ 26  27  8 __ 5  15  8 __ 

$$$$
