10470061
ChemmineR-0425141737XD

 39 39  0     1  0  0  0  0  0999 V2000
    2.0000   -2.0311    0.0000 F   0  0  0  0  0  0  0  0  0  0  0  0
    2.0000   -0.2990    0.0000 F   0  0  0  0  0  0  0  0  0  0  0  0
    3.8660    0.2010    0.0000 O   0  0  0  0  0  0  0  0  0  0  0  0
    4.3660   -3.6651    0.0000 O   0  0  0  0  0  0  0  0  0  0  0  0
    2.8660    3.6651    0.0000 O   0  0  0  0  0  0  0  0  0  0  0  0
    2.8660    1.9330    0.0000 O   0  0  0  0  0  0  0  0  0  0  0  0
    3.5000   -1.1651    0.0000 C   0  0  2  0  0  0  0  0  0  0  0  0
    4.3660   -0.6651    0.0000 C   0  0  1  0  0  0  0  0  0  0  0  0
    3.5000   -2.1651    0.0000 C   0  0  0  0  0  0  0  0  0  0  0  0
    5.2320   -1.1651    0.0000 C   0  0  0  0  0  0  0  0  0  0  0  0
    2.5000   -1.1651    0.0000 C   0  0  0  0  0  0  0  0  0  0  0  0
    2.8572   -0.3990    0.0000 C   0  0  0  0  0  0  0  0  0  0  0  0
    4.3660   -2.6651    0.0000 C   0  0  0  0  0  0  0  0  0  0  0  0
    4.8660    0.2010    0.0000 C   0  0  0  0  0  0  0  0  0  0  0  0
    5.2320   -2.1651    0.0000 C   0  0  0  0  0  0  0  0  0  0  0  0
    6.0981   -0.6651    0.0000 C   0  0  0  0  0  0  0  0  0  0  0  0
    4.3660    1.0670    0.0000 C   0  0  0  0  0  0  0  0  0  0  0  0
    4.8660    1.9330    0.0000 C   0  0  0  0  0  0  0  0  0  0  0  0
    5.8660    1.9330    0.0000 C   0  0  0  0  0  0  0  0  0  0  0  0
    4.3660    2.7990    0.0000 C   0  0  0  0  0  0  0  0  0  0  0  0
    3.3660    2.7990    0.0000 C   0  0  0  0  0  0  0  0  0  0  0  0
    2.8894   -2.0574    0.0000 H   0  0  0  0  0  0  0  0  0  0  0  0
    3.2880   -2.7477    0.0000 H   0  0  0  0  0  0  0  0  0  0  0  0
    2.8100   -1.7020    0.0000 H   0  0  0  0  0  0  0  0  0  0  0  0
    3.3322   -0.0005    0.0000 H   0  0  0  0  0  0  0  0  0  0  0  0
    2.4587    0.0759    0.0000 H   0  0  0  0  0  0  0  0  0  0  0  0
    2.3823   -0.7975    0.0000 H   0  0  0  0  0  0  0  0  0  0  0  0
    5.4860    0.2010    0.0000 H   0  0  0  0  0  0  0  0  0  0  0  0
    5.7690   -2.4751    0.0000 H   0  0  0  0  0  0  0  0  0  0  0  0
    3.2555    0.3087    0.0000 H   0  0  0  0  0  0  0  0  0  0  0  0
    6.4081   -1.2020    0.0000 H   0  0  0  0  0  0  0  0  0  0  0  0
    6.6350   -0.3551    0.0000 H   0  0  0  0  0  0  0  0  0  0  0  0
    5.7881   -0.1281    0.0000 H   0  0  0  0  0  0  0  0  0  0  0  0
    3.7460    1.0670    0.0000 H   0  0  0  0  0  0  0  0  0  0  0  0
    5.8660    1.3130    0.0000 H   0  0  0  0  0  0  0  0  0  0  0  0
    6.4860    1.9330    0.0000 H   0  0  0  0  0  0  0  0  0  0  0  0
    5.8660    2.5530    0.0000 H   0  0  0  0  0  0  0  0  0  0  0  0
    4.6760    3.3360    0.0000 H   0  0  0  0  0  0  0  0  0  0  0  0
    2.2460    3.6651    0.0000 H   0  0  0  0  0  0  0  0  0  0  0  0
  1 11  1  0  0  0  0
  2 11  1  0  0  0  0
  8  3  1  6  0  0  0
  3 30  1  0  0  0  0
  4 13  2  0  0  0  0
  5 21  1  0  0  0  0
  5 39  1  0  0  0  0
  6 21  2  0  0  0  0
  7  8  1  0  0  0  0
  7  9  1  0  0  0  0
  7 11  1  0  0  0  0
  7 12  1  1  0  0  0
  8 10  1  0  0  0  0
  8 14  1  0  0  0  0
  9 13  1  0  0  0  0
  9 22  1  0  0  0  0
  9 23  1  0  0  0  0
 10 15  2  0  0  0  0
 10 16  1  0  0  0  0
 11 24  1  0  0  0  0
 12 25  1  0  0  0  0
 12 26  1  0  0  0  0
 12 27  1  0  0  0  0
 13 15  1  0  0  0  0
 14 17  2  0  0  0  0
 14 28  1  0  0  0  0
 15 29  1  0  0  0  0
 16 31  1  0  0  0  0
 16 32  1  0  0  0  0
 16 33  1  0  0  0  0
 17 18  1  0  0  0  0
 17 34  1  0  0  0  0
 18 19  1  0  0  0  0
 18 20  2  0  0  0  0
 19 35  1  0  0  0  0
 19 36  1  0  0  0  0
 19 37  1  0  0  0  0
 20 21  1  0  0  0  0
 20 38  1  0  0  0  0
M  END
> <PUBCHEM_COMPOUND_CID>
10470061

> <PUBCHEM_COMPOUND_CANONICALIZED>
1

> <PUBCHEM_CACTVS_COMPLEXITY>
548

> <PUBCHEM_CACTVS_HBOND_ACCEPTOR>
6

> <PUBCHEM_CACTVS_HBOND_DONOR>
2

> <PUBCHEM_CACTVS_ROTATABLE_BOND>
4

> <PUBCHEM_CACTVS_SUBSKEYS>
AAADceBwOYAAAAAAAAAAAAAAAAAAAAAAAAAgAAAAAAAAAAAAAAAAGwAACAAADkSAgBACCAAAAgCIAqDSCAAAAAAgAAAICAEAAEgIBBIAAQAAUAAEgAAIkQOKiAAPgAAAAAAAAAAAAAAAAAAAAAAAAAAAAA==

> <PUBCHEM_IUPAC_OPENEYE_NAME>
(2Z,4E)-5-[(1R,6S)-6-(difluoromethyl)-1-hydroxy-2,6-dimethyl-4-oxo-cyclohex-2-en-1-yl]-3-methyl-penta-2,4-dienoic acid

> <PUBCHEM_IUPAC_CAS_NAME>
(2Z,4E)-5-[(1R,6S)-6-(difluoromethyl)-1-hydroxy-2,6-dimethyl-4-oxo-1-cyclohex-2-enyl]-3-methylpenta-2,4-dienoic acid

> <PUBCHEM_IUPAC_NAME>
(2Z,4E)-5-[(1R,6S)-6-(difluoromethyl)-1-hydroxy-2,6-dimethyl-4-oxocyclohex-2-en-1-yl]-3-methylpenta-2,4-dienoic acid

> <PUBCHEM_IUPAC_SYSTEMATIC_NAME>
(2Z,4E)-5-[(1R,6S)-6-[bis(fluoranyl)methyl]-2,6-dimethyl-1-oxidanyl-4-oxidanylidene-cyclohex-2-en-1-yl]-3-methyl-penta-2,4-dienoic acid

> <PUBCHEM_IUPAC_TRADITIONAL_NAME>
(2Z,4E)-5-[(1R,6S)-6-(difluoromethyl)-1-hydroxy-4-keto-2,6-dimethyl-cyclohex-2-en-1-yl]-3-methyl-penta-2,4-dienoic acid

> <PUBCHEM_IUPAC_INCHI>
InChI=1S/C15H18F2O4/c1-9(6-12(19)20)4-5-15(21)10(2)7-11(18)8-14(15,3)13(16)17/h4-7,13,21H,8H2,1-3H3,(H,19,20)/b5-4+,9-6-/t14-,15-/m1/s1

> <PUBCHEM_IUPAC_INCHIKEY>
FNCUPQSMSDVUPG-NVVXKXFLSA-N

> <PUBCHEM_XLOGP3_AA>
1.9

> <PUBCHEM_EXACT_MASS>
300.117315

> <PUBCHEM_MOLECULAR_FORMULA>
C15H18F2O4

> <PUBCHEM_MOLECULAR_WEIGHT>
300.297826

> <PUBCHEM_OPENEYE_CAN_SMILES>
CC1=CC(=O)CC(C1(C=CC(=CC(=O)O)C)O)(C)C(F)F

> <PUBCHEM_OPENEYE_ISO_SMILES>
CC1=CC(=O)C[C@]([C@]1(/C=C/C(=C\C(=O)O)/C)O)(C)C(F)F

> <PUBCHEM_CACTVS_TPSA>
74.6

> <PUBCHEM_MONOISOTOPIC_WEIGHT>
300.117315

> <PUBCHEM_TOTAL_CHARGE>
0

> <PUBCHEM_HEAVY_ATOM_COUNT>
21

> <PUBCHEM_ATOM_DEF_STEREO_COUNT>
2

> <PUBCHEM_ATOM_UDEF_STEREO_COUNT>
0

> <PUBCHEM_BOND_DEF_STEREO_COUNT>
2

> <PUBCHEM_BOND_UDEF_STEREO_COUNT>
0

> <PUBCHEM_ISOTOPIC_ATOM_COUNT>
0

> <PUBCHEM_COMPONENT_COUNT>
1

> <PUBCHEM_CACTVS_TAUTO_COUNT>
5

> <PUBCHEM_COORDINATE_TYPE>
1 __ 5 __ 255

> <PUBCHEM_BONDANNOTATIONS>
8  3  6 __ 7  12  5 __ 

$$$$
