11557770
ChemmineR-0425141737XD

 29 31  0     0  0  0  0  0  0999 V2000
    4.5981    2.9400    0.0000 O   0  0  0  0  0  0  0  0  0  0  0  0
    3.7320   -0.5600    0.0000 N   0  0  0  0  0  0  0  0  0  0  0  0
    5.5443   -1.7553    0.0000 N   0  0  0  0  0  0  0  0  0  0  0  0
    2.8660   -2.0600    0.0000 N   0  0  0  0  0  0  0  0  0  0  0  0
    5.5443   -3.3647    0.0000 N   0  0  0  0  0  0  0  0  0  0  0  0
    3.7320   -3.5600    0.0000 N   0  0  0  0  0  0  0  0  0  0  0  0
    2.8660   -0.0600    0.0000 C   0  0  0  0  0  0  0  0  0  0  0  0
    3.7320   -1.5600    0.0000 C   0  0  0  0  0  0  0  0  0  0  0  0
    4.5981   -2.0600    0.0000 C   0  0  0  0  0  0  0  0  0  0  0  0
    2.8660    0.9400    0.0000 C   0  0  0  0  0  0  0  0  0  0  0  0
    4.5981   -3.0600    0.0000 C   0  0  0  0  0  0  0  0  0  0  0  0
    3.7320    1.4400    0.0000 C   0  0  0  0  0  0  0  0  0  0  0  0
    2.0000    1.4400    0.0000 C   0  0  0  0  0  0  0  0  0  0  0  0
    3.7320    2.4400    0.0000 C   0  0  0  0  0  0  0  0  0  0  0  0
    6.1279   -2.5600    0.0000 C   0  0  0  0  0  0  0  0  0  0  0  0
    2.0000    2.4400    0.0000 C   0  0  0  0  0  0  0  0  0  0  0  0
    2.8660    2.9400    0.0000 C   0  0  0  0  0  0  0  0  0  0  0  0
    2.8660   -3.0600    0.0000 C   0  0  0  0  0  0  0  0  0  0  0  0
    2.2554    0.0477    0.0000 H   0  0  0  0  0  0  0  0  0  0  0  0
    2.6540   -0.6426    0.0000 H   0  0  0  0  0  0  0  0  0  0  0  0
    4.2690   -0.2500    0.0000 H   0  0  0  0  0  0  0  0  0  0  0  0
    5.7369   -1.1660    0.0000 H   0  0  0  0  0  0  0  0  0  0  0  0
    4.2690    1.1300    0.0000 H   0  0  0  0  0  0  0  0  0  0  0  0
    1.4631    1.1300    0.0000 H   0  0  0  0  0  0  0  0  0  0  0  0
    6.7479   -2.5600    0.0000 H   0  0  0  0  0  0  0  0  0  0  0  0
    1.4631    2.7500    0.0000 H   0  0  0  0  0  0  0  0  0  0  0  0
    2.8660    3.5600    0.0000 H   0  0  0  0  0  0  0  0  0  0  0  0
    2.3291   -3.3700    0.0000 H   0  0  0  0  0  0  0  0  0  0  0  0
    4.5981    3.5600    0.0000 H   0  0  0  0  0  0  0  0  0  0  0  0
  1 14  1  0  0  0  0
  1 29  1  0  0  0  0
  2  7  1  0  0  0  0
  2  8  1  0  0  0  0
  2 21  1  0  0  0  0
  3  9  1  0  0  0  0
  3 15  1  0  0  0  0
  3 22  1  0  0  0  0
  4  8  2  0  0  0  0
  4 18  1  0  0  0  0
  5 11  1  0  0  0  0
  5 15  2  0  0  0  0
  6 11  1  0  0  0  0
  6 18  2  0  0  0  0
  7 10  1  0  0  0  0
  7 19  1  0  0  0  0
  7 20  1  0  0  0  0
  8  9  1  0  0  0  0
  9 11  2  0  0  0  0
 10 12  2  0  0  0  0
 10 13  1  0  0  0  0
 12 14  1  0  0  0  0
 12 23  1  0  0  0  0
 13 16  2  0  0  0  0
 13 24  1  0  0  0  0
 14 17  2  0  0  0  0
 15 25  1  0  0  0  0
 16 17  1  0  0  0  0
 16 26  1  0  0  0  0
 17 27  1  0  0  0  0
 18 28  1  0  0  0  0
M  END
> <PUBCHEM_COMPOUND_CID>
11557770

> <PUBCHEM_COMPOUND_CANONICALIZED>
1

> <PUBCHEM_CACTVS_COMPLEXITY>
277

> <PUBCHEM_CACTVS_HBOND_ACCEPTOR>
5

> <PUBCHEM_CACTVS_HBOND_DONOR>
3

> <PUBCHEM_CACTVS_ROTATABLE_BOND>
3

> <PUBCHEM_CACTVS_SUBSKEYS>
AAADccBzoAAAAAAAAAAAAAAAAAAAAWAAAAA8QAAAAAAAAFgB/AAAHgAQCAAADAzBnwQ19r7JkgCgAyZjZACCgC2xMKAJ2aAuXJiIbiLC2VOUdAhswBPImCewwBAOAAABAAAAAAAAAAIAAAAAAAAAAAAAAA==

> <PUBCHEM_IUPAC_OPENEYE_NAME>
3-[(7H-purin-6-ylamino)methyl]phenol

> <PUBCHEM_IUPAC_CAS_NAME>
3-[(7H-purin-6-ylamino)methyl]phenol

> <PUBCHEM_IUPAC_NAME>
3-[(7H-purin-6-ylamino)methyl]phenol

> <PUBCHEM_IUPAC_SYSTEMATIC_NAME>
3-[(7H-purin-6-ylamino)methyl]phenol

> <PUBCHEM_IUPAC_TRADITIONAL_NAME>
3-[(7H-purin-6-ylamino)methyl]phenol

> <PUBCHEM_IUPAC_INCHI>
InChI=1S/C12H11N5O/c18-9-3-1-2-8(4-9)5-13-11-10-12(15-6-14-10)17-7-16-11/h1-4,6-7,18H,5H2,(H2,13,14,15,16,17)

> <PUBCHEM_IUPAC_INCHIKEY>
BUDWTFCZGZYQHZ-UHFFFAOYSA-N

> <PUBCHEM_XLOGP3_AA>
1.6

> <PUBCHEM_EXACT_MASS>
241.09636

> <PUBCHEM_MOLECULAR_FORMULA>
C12H11N5O

> <PUBCHEM_MOLECULAR_WEIGHT>
241.24864

> <PUBCHEM_OPENEYE_CAN_SMILES>
C1=CC(=CC(=C1)O)CNC2=NC=NC3=C2NC=N3

> <PUBCHEM_OPENEYE_ISO_SMILES>
C1=CC(=CC(=C1)O)CNC2=NC=NC3=C2NC=N3

> <PUBCHEM_CACTVS_TPSA>
86.7

> <PUBCHEM_MONOISOTOPIC_WEIGHT>
241.09636

> <PUBCHEM_TOTAL_CHARGE>
0

> <PUBCHEM_HEAVY_ATOM_COUNT>
18

> <PUBCHEM_ATOM_DEF_STEREO_COUNT>
0

> <PUBCHEM_ATOM_UDEF_STEREO_COUNT>
0

> <PUBCHEM_BOND_DEF_STEREO_COUNT>
0

> <PUBCHEM_BOND_UDEF_STEREO_COUNT>
0

> <PUBCHEM_ISOTOPIC_ATOM_COUNT>
0

> <PUBCHEM_COMPONENT_COUNT>
1

> <PUBCHEM_CACTVS_TAUTO_COUNT>
24

> <PUBCHEM_COORDINATE_TYPE>
1 __ 5 __ 255

> <PUBCHEM_BONDANNOTATIONS>
10  12  8 __ 10  13  8 __ 12  14  8 __ 13  16  8 __ 14  17  8 __ 16  17  8 __ 3  15  8 __ 3  9  8 __ 4  18  8 __ 4  8  8 __ 5  11  8 __ 5  15  8 __ 6  11  8 __ 6  18  8 __ 8  9  8 __ 9  11  8 __ 

$$$$
