14702799
ChemmineR-0425141737XD

 41 41  0     1  0  0  0  0  0999 V2000
    3.6200    0.2010    0.0000 O   0  0  0  0  0  0  0  0  0  0  0  0
    4.1200   -3.6651    0.0000 O   0  0  0  0  0  0  0  0  0  0  0  0
    2.6200    3.6651    0.0000 O   0  0  0  0  0  0  0  0  0  0  0  0
    2.6200    1.9330    0.0000 O   0  0  0  0  0  0  0  0  0  0  0  0
    3.2540   -1.1651    0.0000 C   0  0  0  0  0  0  0  0  0  0  0  0
    4.1200   -0.6651    0.0000 C   0  0  2  0  0  0  0  0  0  0  0  0
    4.9860   -1.1651    0.0000 C   0  0  1  0  0  0  0  0  0  0  0  0
    3.2540   -2.1651    0.0000 C   0  0  0  0  0  0  0  0  0  0  0  0
    4.9860   -2.1651    0.0000 C   0  0  0  0  0  0  0  0  0  0  0  0
    4.1200   -2.6651    0.0000 C   0  0  0  0  0  0  0  0  0  0  0  0
    2.2540   -1.1651    0.0000 C   0  0  0  0  0  0  0  0  0  0  0  0
    2.4879   -0.5223    0.0000 C   0  0  0  0  0  0  0  0  0  0  0  0
    4.6200    0.2010    0.0000 C   0  0  0  0  0  0  0  0  0  0  0  0
    5.8520   -0.6651    0.0000 C   0  0  0  0  0  0  0  0  0  0  0  0
    4.1200    1.0670    0.0000 C   0  0  0  0  0  0  0  0  0  0  0  0
    4.6200    1.9330    0.0000 C   0  0  0  0  0  0  0  0  0  0  0  0
    5.6200    1.9330    0.0000 C   0  0  0  0  0  0  0  0  0  0  0  0
    4.1200    2.7990    0.0000 C   0  0  0  0  0  0  0  0  0  0  0  0
    3.1200    2.7990    0.0000 C   0  0  0  0  0  0  0  0  0  0  0  0
    4.9860   -0.5451    0.0000 H   0  0  0  0  0  0  0  0  0  0  0  0
    2.6434   -2.0574    0.0000 H   0  0  0  0  0  0  0  0  0  0  0  0
    3.0419   -2.7477    0.0000 H   0  0  0  0  0  0  0  0  0  0  0  0
    5.1981   -2.7477    0.0000 H   0  0  0  0  0  0  0  0  0  0  0  0
    5.5966   -2.0574    0.0000 H   0  0  0  0  0  0  0  0  0  0  0  0
    2.2540   -0.5451    0.0000 H   0  0  0  0  0  0  0  0  0  0  0  0
    1.6340   -1.1651    0.0000 H   0  0  0  0  0  0  0  0  0  0  0  0
    2.2540   -1.7851    0.0000 H   0  0  0  0  0  0  0  0  0  0  0  0
    2.8865   -0.0473    0.0000 H   0  0  0  0  0  0  0  0  0  0  0  0
    2.0130   -0.1237    0.0000 H   0  0  0  0  0  0  0  0  0  0  0  0
    2.0894   -0.9972    0.0000 H   0  0  0  0  0  0  0  0  0  0  0  0
    5.2400    0.2010    0.0000 H   0  0  0  0  0  0  0  0  0  0  0  0
    6.1620   -1.2020    0.0000 H   0  0  0  0  0  0  0  0  0  0  0  0
    6.3890   -0.3551    0.0000 H   0  0  0  0  0  0  0  0  0  0  0  0
    5.5420   -0.1281    0.0000 H   0  0  0  0  0  0  0  0  0  0  0  0
    3.0000    0.2010    0.0000 H   0  0  0  0  0  0  0  0  0  0  0  0
    3.5000    1.0670    0.0000 H   0  0  0  0  0  0  0  0  0  0  0  0
    5.6200    1.3130    0.0000 H   0  0  0  0  0  0  0  0  0  0  0  0
    6.2400    1.9330    0.0000 H   0  0  0  0  0  0  0  0  0  0  0  0
    5.6200    2.5530    0.0000 H   0  0  0  0  0  0  0  0  0  0  0  0
    4.4300    3.3360    0.0000 H   0  0  0  0  0  0  0  0  0  0  0  0
    2.0000    3.6651    0.0000 H   0  0  0  0  0  0  0  0  0  0  0  0
  6  1  1  1  0  0  0
  1 35  1  0  0  0  0
  2 10  2  0  0  0  0
  3 19  1  0  0  0  0
  3 41  1  0  0  0  0
  4 19  2  0  0  0  0
  5  6  1  0  0  0  0
  5  8  1  0  0  0  0
  5 11  1  0  0  0  0
  5 12  1  0  0  0  0
  6  7  1  0  0  0  0
  6 13  1  0  0  0  0
  7  9  1  0  0  0  0
  7 14  1  6  0  0  0
  7 20  1  0  0  0  0
  8 10  1  0  0  0  0
  8 21  1  0  0  0  0
  8 22  1  0  0  0  0
  9 10  1  0  0  0  0
  9 23  1  0  0  0  0
  9 24  1  0  0  0  0
 11 25  1  0  0  0  0
 11 26  1  0  0  0  0
 11 27  1  0  0  0  0
 12 28  1  0  0  0  0
 12 29  1  0  0  0  0
 12 30  1  0  0  0  0
 13 15  2  0  0  0  0
 13 31  1  0  0  0  0
 14 32  1  0  0  0  0
 14 33  1  0  0  0  0
 14 34  1  0  0  0  0
 15 16  1  0  0  0  0
 15 36  1  0  0  0  0
 16 17  1  0  0  0  0
 16 18  2  0  0  0  0
 17 37  1  0  0  0  0
 17 38  1  0  0  0  0
 17 39  1  0  0  0  0
 18 19  1  0  0  0  0
 18 40  1  0  0  0  0
M  END
> <PUBCHEM_COMPOUND_CID>
14702799

> <PUBCHEM_COMPOUND_CANONICALIZED>
1

> <PUBCHEM_CACTVS_COMPLEXITY>
445

> <PUBCHEM_CACTVS_HBOND_ACCEPTOR>
4

> <PUBCHEM_CACTVS_HBOND_DONOR>
2

> <PUBCHEM_CACTVS_ROTATABLE_BOND>
3

> <PUBCHEM_CACTVS_SUBSKEYS>
AAADceBwOAAAAAAAAAAAAAAAAAAAAAAAAAAwAAAAAAAAAAAAAAAAGgAACAAAD0SAgAACCAAAAgCIAqDSCAAAAAAgAAAICAEAAEgIBBIAAQAAUAAEgAAIkQOKyOAPgAAAAAAAAAAAAAQAADAAAAAAAAAAAA==

> <PUBCHEM_IUPAC_OPENEYE_NAME>
(2Z,4E)-5-[(1R,6R)-1-hydroxy-2,2,6-trimethyl-4-oxo-cyclohexyl]-3-methyl-penta-2,4-dienoic acid

> <PUBCHEM_IUPAC_CAS_NAME>
(2Z,4E)-5-[(1R,6R)-1-hydroxy-2,2,6-trimethyl-4-oxocyclohexyl]-3-methylpenta-2,4-dienoic acid

> <PUBCHEM_IUPAC_NAME>
(2Z,4E)-5-[(1R,6R)-1-hydroxy-2,2,6-trimethyl-4-oxocyclohexyl]-3-methylpenta-2,4-dienoic acid

> <PUBCHEM_IUPAC_SYSTEMATIC_NAME>
(2Z,4E)-3-methyl-5-[(1R,6R)-2,2,6-trimethyl-1-oxidanyl-4-oxidanylidene-cyclohexyl]penta-2,4-dienoic acid

> <PUBCHEM_IUPAC_TRADITIONAL_NAME>
(2Z,4E)-5-[(1R,6R)-1-hydroxy-4-keto-2,2,6-trimethyl-cyclohexyl]-3-methyl-penta-2,4-dienoic acid

> <PUBCHEM_IUPAC_INCHI>
InChI=1S/C15H22O4/c1-10(7-13(17)18)5-6-15(19)11(2)8-12(16)9-14(15,3)4/h5-7,11,19H,8-9H2,1-4H3,(H,17,18)/b6-5+,10-7-/t11-,15+/m1/s1

> <PUBCHEM_IUPAC_INCHIKEY>
LPYBIZVNSMWXPK-RGPCXDIUSA-N

> <PUBCHEM_XLOGP3_AA>
1.9

> <PUBCHEM_EXACT_MASS>
266.151809

> <PUBCHEM_MOLECULAR_FORMULA>
C15H22O4

> <PUBCHEM_MOLECULAR_WEIGHT>
266.33278

> <PUBCHEM_OPENEYE_CAN_SMILES>
CC1CC(=O)CC(C1(C=CC(=CC(=O)O)C)O)(C)C

> <PUBCHEM_OPENEYE_ISO_SMILES>
C[C@@H]1CC(=O)CC([C@@]1(/C=C/C(=C\C(=O)O)/C)O)(C)C

> <PUBCHEM_CACTVS_TPSA>
74.6

> <PUBCHEM_MONOISOTOPIC_WEIGHT>
266.151809

> <PUBCHEM_TOTAL_CHARGE>
0

> <PUBCHEM_HEAVY_ATOM_COUNT>
19

> <PUBCHEM_ATOM_DEF_STEREO_COUNT>
2

> <PUBCHEM_ATOM_UDEF_STEREO_COUNT>
0

> <PUBCHEM_BOND_DEF_STEREO_COUNT>
2

> <PUBCHEM_BOND_UDEF_STEREO_COUNT>
0

> <PUBCHEM_ISOTOPIC_ATOM_COUNT>
0

> <PUBCHEM_COMPONENT_COUNT>
1

> <PUBCHEM_CACTVS_TAUTO_COUNT>
3

> <PUBCHEM_COORDINATE_TYPE>
1 __ 5 __ 255

> <PUBCHEM_BONDANNOTATIONS>
6  1  5 __ 7  14  6 __ 

$$$$
