22149700
ChemmineR-0425141737XD

 25 27  0     0  0  0  0  0  0999 V2000
    3.7320   -2.5000    0.0000 Cl   0  0  0  0  0  0  0  0  0  0  0  0
    2.0000    2.5000    0.0000 Cl   0  0  0  0  0  0  0  0  0  0  0  0
    5.4641    0.5000    0.0000 N    0  0  0  0  0  0  0  0  0  0  0  0
    7.2764   -0.6953    0.0000 N    0  0  0  0  0  0  0  0  0  0  0  0
    4.5981   -1.0000    0.0000 N    0  0  0  0  0  0  0  0  0  0  0  0
    7.2764   -2.3047    0.0000 N    0  0  0  0  0  0  0  0  0  0  0  0
    5.4641   -2.5000    0.0000 N    0  0  0  0  0  0  0  0  0  0  0  0
    6.3301   -1.0000    0.0000 C    0  0  0  0  0  0  0  0  0  0  0  0
    5.4641   -0.5000    0.0000 C    0  0  0  0  0  0  0  0  0  0  0  0
    6.3301   -2.0000    0.0000 C    0  0  0  0  0  0  0  0  0  0  0  0
    4.5981    1.0000    0.0000 C    0  0  0  0  0  0  0  0  0  0  0  0
    7.8600   -1.5000    0.0000 C    0  0  0  0  0  0  0  0  0  0  0  0
    4.5981    2.0000    0.0000 C    0  0  0  0  0  0  0  0  0  0  0  0
    3.7320    0.5000    0.0000 C    0  0  0  0  0  0  0  0  0  0  0  0
    4.5981   -2.0000    0.0000 C    0  0  0  0  0  0  0  0  0  0  0  0
    3.7320    2.5000    0.0000 C    0  0  0  0  0  0  0  0  0  0  0  0
    2.8660    1.0000    0.0000 C    0  0  0  0  0  0  0  0  0  0  0  0
    2.8660    2.0000    0.0000 C    0  0  0  0  0  0  0  0  0  0  0  0
    6.0010    0.8100    0.0000 H    0  0  0  0  0  0  0  0  0  0  0  0
    7.4690   -0.1059    0.0000 H    0  0  0  0  0  0  0  0  0  0  0  0
    8.4800   -1.5000    0.0000 H    0  0  0  0  0  0  0  0  0  0  0  0
    5.1350    2.3100    0.0000 H    0  0  0  0  0  0  0  0  0  0  0  0
    3.7320   -0.1200    0.0000 H    0  0  0  0  0  0  0  0  0  0  0  0
    3.7320    3.1200    0.0000 H    0  0  0  0  0  0  0  0  0  0  0  0
    2.3291    0.6900    0.0000 H    0  0  0  0  0  0  0  0  0  0  0  0
  1 15  1  0  0  0  0
  2 18  1  0  0  0  0
  3  9  1  0  0  0  0
  3 11  1  0  0  0  0
  3 19  1  0  0  0  0
  4  8  1  0  0  0  0
  4 12  1  0  0  0  0
  4 20  1  0  0  0  0
  5  9  2  0  0  0  0
  5 15  1  0  0  0  0
  6 10  1  0  0  0  0
  6 12  2  0  0  0  0
  7 10  1  0  0  0  0
  7 15  2  0  0  0  0
  8  9  1  0  0  0  0
  8 10  2  0  0  0  0
 11 13  2  0  0  0  0
 11 14  1  0  0  0  0
 12 21  1  0  0  0  0
 13 16  1  0  0  0  0
 13 22  1  0  0  0  0
 14 17  2  0  0  0  0
 14 23  1  0  0  0  0
 16 18  2  0  0  0  0
 16 24  1  0  0  0  0
 17 18  1  0  0  0  0
 17 25  1  0  0  0  0
M  END
> <PUBCHEM_COMPOUND_CID>
22149700

> <PUBCHEM_COMPOUND_CANONICALIZED>
1

> <PUBCHEM_CACTVS_COMPLEXITY>
285

> <PUBCHEM_CACTVS_HBOND_ACCEPTOR>
4

> <PUBCHEM_CACTVS_HBOND_DONOR>
2

> <PUBCHEM_CACTVS_ROTATABLE_BOND>
2

> <PUBCHEM_CACTVS_SUBSKEYS>
AAADcYBzgAAGAAAAAAAAAAAAAAAAAWAAAAA8QAAAAAAAAFgB/AAAHAIQAAAACAqBFyQ18L7JkACgASZjZACCgC2xF6AJ2aAodpiIaGLB29GUJAhokALIyCcQAAAAAABAAAAAAAAAAIAAAAAAAAAAAAAAAA==

> <PUBCHEM_IUPAC_OPENEYE_NAME>
2-chloro-N-(4-chlorophenyl)-7H-purin-6-amine

> <PUBCHEM_IUPAC_CAS_NAME>
2-chloro-N-(4-chlorophenyl)-7H-purin-6-amine

> <PUBCHEM_IUPAC_NAME>
2-chloro-N-(4-chlorophenyl)-7H-purin-6-amine

> <PUBCHEM_IUPAC_SYSTEMATIC_NAME>
2-chloranyl-N-(4-chlorophenyl)-7H-purin-6-amine

> <PUBCHEM_IUPAC_TRADITIONAL_NAME>
(4-chlorophenyl)-(2-chloro-7H-purin-6-yl)amine

> <PUBCHEM_IUPAC_INCHI>
InChI=1S/C11H7Cl2N5/c12-6-1-3-7(4-2-6)16-10-8-9(15-5-14-8)17-11(13)18-10/h1-5H,(H2,14,15,16,17,18)

> <PUBCHEM_IUPAC_INCHIKEY>
IBCZOXNKMXUTOG-UHFFFAOYSA-N

> <PUBCHEM_XLOGP3_AA>
3.6

> <PUBCHEM_EXACT_MASS>
279.007851

> <PUBCHEM_MOLECULAR_FORMULA>
C11H7Cl2N5

> <PUBCHEM_MOLECULAR_WEIGHT>
280.11278

> <PUBCHEM_OPENEYE_CAN_SMILES>
C1=CC(=CC=C1NC2=NC(=NC3=C2NC=N3)Cl)Cl

> <PUBCHEM_OPENEYE_ISO_SMILES>
C1=CC(=CC=C1NC2=NC(=NC3=C2NC=N3)Cl)Cl

> <PUBCHEM_CACTVS_TPSA>
66.5

> <PUBCHEM_MONOISOTOPIC_WEIGHT>
279.007851

> <PUBCHEM_TOTAL_CHARGE>
0

> <PUBCHEM_HEAVY_ATOM_COUNT>
18

> <PUBCHEM_ATOM_DEF_STEREO_COUNT>
0

> <PUBCHEM_ATOM_UDEF_STEREO_COUNT>
0

> <PUBCHEM_BOND_DEF_STEREO_COUNT>
0

> <PUBCHEM_BOND_UDEF_STEREO_COUNT>
0

> <PUBCHEM_ISOTOPIC_ATOM_COUNT>
0

> <PUBCHEM_COMPONENT_COUNT>
1

> <PUBCHEM_CACTVS_TAUTO_COUNT>
8

> <PUBCHEM_COORDINATE_TYPE>
1 __ 5 __ 255

> <PUBCHEM_BONDANNOTATIONS>
11  13  8 __ 11  14  8 __ 13  16  8 __ 14  17  8 __ 16  18  8 __ 17  18  8 __ 4  12  8 __ 4  8  8 __ 5  15  8 __ 5  9  8 __ 6  10  8 __ 6  12  8 __ 7  10  8 __ 7  15  8 __ 8  10  8 __ 8  9  8 __ 

$$$$
