22314173
ChemmineR-0425141737XD

 49 51  0     1  0  0  0  0  0999 V2000
   13.7151    2.8034    0.0000 Br   0  0  0  0  0  0  0  0  0  0  0  0
   12.4725   -2.6081    0.0000 S    0  0  0  0  0  0  0  0  0  0  0  0
    8.9282   -2.8034    0.0000 O    0  0  0  0  0  0  0  0  0  0  0  0
    4.5981   -2.3034    0.0000 N    0  0  3  0  0  0  0  0  0  0  0  0
   13.0561   -1.8034    0.0000 N    0  0  0  0  0  0  0  0  0  0  0  0
    6.3301   -2.3034    0.0000 C    0  0  0  0  0  0  0  0  0  0  0  0
    5.4641   -2.8034    0.0000 C    0  0  0  0  0  0  0  0  0  0  0  0
    7.1962   -2.8034    0.0000 C    0  0  0  0  0  0  0  0  0  0  0  0
    8.0622   -2.3034    0.0000 C    0  0  0  0  0  0  0  0  0  0  0  0
    3.7320   -2.8034    0.0000 C    0  0  0  0  0  0  0  0  0  0  0  0
    4.5981   -1.3034    0.0000 C    0  0  0  0  0  0  0  0  0  0  0  0
    9.7942   -2.3034    0.0000 C    0  0  0  0  0  0  0  0  0  0  0  0
   11.5263   -1.3034    0.0000 C    0  0  0  0  0  0  0  0  0  0  0  0
   11.5263   -2.3034    0.0000 C    0  0  0  0  0  0  0  0  0  0  0  0
   12.4725   -0.9987    0.0000 C    0  0  0  0  0  0  0  0  0  0  0  0
   10.6603   -2.8034    0.0000 C    0  0  0  0  0  0  0  0  0  0  0  0
   10.6603   -0.8034    0.0000 C    0  0  0  0  0  0  0  0  0  0  0  0
    9.7942   -1.3034    0.0000 C    0  0  0  0  0  0  0  0  0  0  0  0
   12.7832   -0.0482    0.0000 C    0  0  0  0  0  0  0  0  0  0  0  0
    2.8660   -2.3034    0.0000 C    0  0  0  0  0  0  0  0  0  0  0  0
   13.7617    0.1581    0.0000 C    0  0  0  0  0  0  0  0  0  0  0  0
   12.1153    0.6961    0.0000 C    0  0  0  0  0  0  0  0  0  0  0  0
    2.0000   -2.8034    0.0000 C    0  0  0  0  0  0  0  0  0  0  0  0
   14.0723    1.1086    0.0000 C    0  0  0  0  0  0  0  0  0  0  0  0
   12.4260    1.6467    0.0000 C    0  0  0  0  0  0  0  0  0  0  0  0
   13.4045    1.8529    0.0000 C    0  0  0  0  0  0  0  0  0  0  0  0
    6.7287   -1.8285    0.0000 H    0  0  0  0  0  0  0  0  0  0  0  0
    5.9316   -1.8285    0.0000 H    0  0  0  0  0  0  0  0  0  0  0  0
    5.0656   -3.2784    0.0000 H    0  0  0  0  0  0  0  0  0  0  0  0
    5.8626   -3.2784    0.0000 H    0  0  0  0  0  0  0  0  0  0  0  0
    6.7976   -3.2784    0.0000 H    0  0  0  0  0  0  0  0  0  0  0  0
    7.5947   -3.2784    0.0000 H    0  0  0  0  0  0  0  0  0  0  0  0
    8.4607   -1.8285    0.0000 H    0  0  0  0  0  0  0  0  0  0  0  0
    7.6636   -1.8285    0.0000 H    0  0  0  0  0  0  0  0  0  0  0  0
    3.3335   -3.2784    0.0000 H    0  0  0  0  0  0  0  0  0  0  0  0
    4.1306   -3.2784    0.0000 H    0  0  0  0  0  0  0  0  0  0  0  0
    5.2181   -1.3034    0.0000 H    0  0  0  0  0  0  0  0  0  0  0  0
    4.5981   -0.6834    0.0000 H    0  0  0  0  0  0  0  0  0  0  0  0
    3.9781   -1.3034    0.0000 H    0  0  0  0  0  0  0  0  0  0  0  0
   10.6603   -3.4234    0.0000 H    0  0  0  0  0  0  0  0  0  0  0  0
   10.6603   -0.1834    0.0000 H    0  0  0  0  0  0  0  0  0  0  0  0
    9.2573   -0.9934    0.0000 H    0  0  0  0  0  0  0  0  0  0  0  0
    2.8660   -1.6834    0.0000 H    0  0  0  0  0  0  0  0  0  0  0  0
   14.1757   -0.3034    0.0000 H    0  0  0  0  0  0  0  0  0  0  0  0
   11.5086    0.5683    0.0000 H    0  0  0  0  0  0  0  0  0  0  0  0
   14.6790    1.2364    0.0000 H    0  0  0  0  0  0  0  0  0  0  0  0
   12.0119    2.1081    0.0000 H    0  0  0  0  0  0  0  0  0  0  0  0
    1.4631   -2.4934    0.0000 H    0  0  0  0  0  0  0  0  0  0  0  0
    2.0000   -3.4234    0.0000 H    0  0  0  0  0  0  0  0  0  0  0  0
  1 26  1  0  0  0  0
  2  5  1  0  0  0  0
  2 14  1  0  0  0  0
  3  9  1  0  0  0  0
  3 12  1  0  0  0  0
  4  7  1  0  0  0  0
  4 10  1  0  0  0  0
  4 11  1  0  0  0  0
  5 15  2  0  0  0  0
  6  7  1  0  0  0  0
  6  8  1  0  0  0  0
  6 27  1  0  0  0  0
  6 28  1  0  0  0  0
  7 29  1  0  0  0  0
  7 30  1  0  0  0  0
  8  9  1  0  0  0  0
  8 31  1  0  0  0  0
  8 32  1  0  0  0  0
  9 33  1  0  0  0  0
  9 34  1  0  0  0  0
 10 20  1  0  0  0  0
 10 35  1  0  0  0  0
 10 36  1  0  0  0  0
 11 37  1  0  0  0  0
 11 38  1  0  0  0  0
 11 39  1  0  0  0  0
 12 16  2  0  0  0  0
 12 18  1  0  0  0  0
 13 14  2  0  0  0  0
 13 15  1  0  0  0  0
 13 17  1  0  0  0  0
 14 16  1  0  0  0  0
 15 19  1  0  0  0  0
 16 40  1  0  0  0  0
 17 18  2  0  0  0  0
 17 41  1  0  0  0  0
 18 42  1  0  0  0  0
 19 21  2  0  0  0  0
 19 22  1  0  0  0  0
 20 23  2  0  0  0  0
 20 43  1  0  0  0  0
 21 24  1  0  0  0  0
 21 44  1  0  0  0  0
 22 25  2  0  0  0  0
 22 45  1  0  0  0  0
 23 48  1  0  0  0  0
 23 49  1  0  0  0  0
 24 26  2  0  0  0  0
 24 46  1  0  0  0  0
 25 26  1  0  0  0  0
 25 47  1  0  0  0  0
M  END
> <PUBCHEM_COMPOUND_CID>
22314173

> <PUBCHEM_COMPOUND_CANONICALIZED>
1

> <PUBCHEM_CACTVS_COMPLEXITY>
430

> <PUBCHEM_CACTVS_HBOND_ACCEPTOR>
4

> <PUBCHEM_CACTVS_HBOND_DONOR>
0

> <PUBCHEM_CACTVS_ROTATABLE_BOND>
9

> <PUBCHEM_CACTVS_SUBSKEYS>
AAADceB7IABAEAAAAAAAAAAAAAAAAWAAAAAwYAAAAAAAAFgB9AAAHgRAQAABrAzh3gYyh9MABACkAyRiQACDCBAgIARImDguTLgMJqKEsZuGOCTkwBGI6hew0OEOIgAABAAEAABEAAAIAAgAAAAAAAAAAA==

> <PUBCHEM_IUPAC_OPENEYE_NAME>
N-allyl-4-[[3-(4-bromophenyl)-1,2-benzothiazol-6-yl]oxy]-N-methyl-butan-1-amine

> <PUBCHEM_IUPAC_CAS_NAME>
4-[[3-(4-bromophenyl)-1,2-benzothiazol-6-yl]oxy]-N-methyl-N-prop-2-enyl-1-butanamine

> <PUBCHEM_IUPAC_NAME>
4-[[3-(4-bromophenyl)-1,2-benzothiazol-6-yl]oxy]-N-methyl-N-prop-2-enylbutan-1-amine

> <PUBCHEM_IUPAC_SYSTEMATIC_NAME>
4-[[3-(4-bromophenyl)-1,2-benzothiazol-6-yl]oxy]-N-methyl-N-prop-2-enyl-butan-1-amine

> <PUBCHEM_IUPAC_TRADITIONAL_NAME>
allyl-[4-[[3-(4-bromophenyl)-1,2-benzothiazol-6-yl]oxy]butyl]-methyl-amine

> <PUBCHEM_IUPAC_INCHI>
InChI=1S/C21H23BrN2OS/c1-3-12-24(2)13-4-5-14-25-18-10-11-19-20(15-18)26-23-21(19)16-6-8-17(22)9-7-16/h3,6-11,15H,1,4-5,12-14H2,2H3

> <PUBCHEM_IUPAC_INCHIKEY>
PDHRIPJKNGUCJP-UHFFFAOYSA-N

> <PUBCHEM_XLOGP3_AA>
6

> <PUBCHEM_EXACT_MASS>
430.071446

> <PUBCHEM_MOLECULAR_FORMULA>
C21H23BrN2OS

> <PUBCHEM_MOLECULAR_WEIGHT>
431.38912

> <PUBCHEM_OPENEYE_CAN_SMILES>
CN(CCCCOC1=CC2=C(C=C1)C(=NS2)C3=CC=C(C=C3)Br)CC=C

> <PUBCHEM_OPENEYE_ISO_SMILES>
CN(CCCCOC1=CC2=C(C=C1)C(=NS2)C3=CC=C(C=C3)Br)CC=C

> <PUBCHEM_CACTVS_TPSA>
53.6

> <PUBCHEM_MONOISOTOPIC_WEIGHT>
430.071446

> <PUBCHEM_TOTAL_CHARGE>
0

> <PUBCHEM_HEAVY_ATOM_COUNT>
26

> <PUBCHEM_ATOM_DEF_STEREO_COUNT>
0

> <PUBCHEM_ATOM_UDEF_STEREO_COUNT>
0

> <PUBCHEM_BOND_DEF_STEREO_COUNT>
0

> <PUBCHEM_BOND_UDEF_STEREO_COUNT>
0

> <PUBCHEM_ISOTOPIC_ATOM_COUNT>
0

> <PUBCHEM_COMPONENT_COUNT>
1

> <PUBCHEM_CACTVS_TAUTO_COUNT>
1

> <PUBCHEM_COORDINATE_TYPE>
1 __ 5 __ 255

> <PUBCHEM_BONDANNOTATIONS>
12  16  8 __ 12  18  8 __ 13  14  8 __ 13  15  8 __ 13  17  8 __ 14  16  8 __ 17  18  8 __ 19  21  8 __ 19  22  8 __ 2  14  8 __ 2  5  8 __ 21  24  8 __ 22  25  8 __ 24  26  8 __ 25  26  8 __ 5  15  8 __ 

$$$$
