22314073
ChemmineR-0425141737XD

 44 46  0     1  0  0  0  0  0999 V2000
   12.5200    3.3034    0.0000 Br   0  0  0  0  0  0  0  0  0  0  0  0
   11.2774   -2.1081    0.0000 S    0  0  0  0  0  0  0  0  0  0  0  0
    2.5369   -3.3034    0.0000 O    0  0  0  0  0  0  0  0  0  0  0  0
    5.1350   -2.8034    0.0000 N    0  0  3  0  0  0  0  0  0  0  0  0
   11.8610   -1.3034    0.0000 N    0  0  0  0  0  0  0  0  0  0  0  0
    4.2690   -3.3034    0.0000 C    0  0  0  0  0  0  0  0  0  0  0  0
    5.1350   -1.8034    0.0000 C    0  0  0  0  0  0  0  0  0  0  0  0
    6.0010   -3.3034    0.0000 C    0  0  0  0  0  0  0  0  0  0  0  0
   10.3312   -0.8034    0.0000 C    0  0  0  0  0  0  0  0  0  0  0  0
   11.2774   -0.4987    0.0000 C    0  0  0  0  0  0  0  0  0  0  0  0
   10.3312   -1.8034    0.0000 C    0  0  0  0  0  0  0  0  0  0  0  0
    3.4030   -2.8034    0.0000 C    0  0  0  0  0  0  0  0  0  0  0  0
    4.2690   -1.3034    0.0000 C    0  0  0  0  0  0  0  0  0  0  0  0
   11.5880    0.4518    0.0000 C    0  0  0  0  0  0  0  0  0  0  0  0
    9.4651   -0.3034    0.0000 C    0  0  0  0  0  0  0  0  0  0  0  0
    8.5991   -1.8034    0.0000 C    0  0  0  0  0  0  0  0  0  0  0  0
    9.4651   -2.3034    0.0000 C    0  0  0  0  0  0  0  0  0  0  0  0
    8.5991   -0.8034    0.0000 C    0  0  0  0  0  0  0  0  0  0  0  0
    6.8671   -2.8034    0.0000 C    0  0  0  0  0  0  0  0  0  0  0  0
   12.5666    0.6581    0.0000 C    0  0  0  0  0  0  0  0  0  0  0  0
   10.9202    1.1962    0.0000 C    0  0  0  0  0  0  0  0  0  0  0  0
    7.7331   -2.3034    0.0000 C    0  0  0  0  0  0  0  0  0  0  0  0
   12.8772    1.6086    0.0000 C    0  0  0  0  0  0  0  0  0  0  0  0
   11.2309    2.1467    0.0000 C    0  0  0  0  0  0  0  0  0  0  0  0
   12.2094    2.3529    0.0000 C    0  0  0  0  0  0  0  0  0  0  0  0
    3.8705   -3.7784    0.0000 H    0  0  0  0  0  0  0  0  0  0  0  0
    4.6675   -3.7784    0.0000 H    0  0  0  0  0  0  0  0  0  0  0  0
    5.7456   -1.9111    0.0000 H    0  0  0  0  0  0  0  0  0  0  0  0
    5.3471   -1.2208    0.0000 H    0  0  0  0  0  0  0  0  0  0  0  0
    5.6025   -3.7784    0.0000 H    0  0  0  0  0  0  0  0  0  0  0  0
    6.3996   -3.7784    0.0000 H    0  0  0  0  0  0  0  0  0  0  0  0
    3.8015   -2.3285    0.0000 H    0  0  0  0  0  0  0  0  0  0  0  0
    3.0044   -2.3285    0.0000 H    0  0  0  0  0  0  0  0  0  0  0  0
    4.5790   -0.7665    0.0000 H    0  0  0  0  0  0  0  0  0  0  0  0
    3.7320   -0.9934    0.0000 H    0  0  0  0  0  0  0  0  0  0  0  0
    3.9590   -1.8403    0.0000 H    0  0  0  0  0  0  0  0  0  0  0  0
    9.4651    0.3166    0.0000 H    0  0  0  0  0  0  0  0  0  0  0  0
    9.4651   -2.9234    0.0000 H    0  0  0  0  0  0  0  0  0  0  0  0
    8.0622   -0.4934    0.0000 H    0  0  0  0  0  0  0  0  0  0  0  0
   12.9806    0.1966    0.0000 H    0  0  0  0  0  0  0  0  0  0  0  0
   10.3135    1.0683    0.0000 H    0  0  0  0  0  0  0  0  0  0  0  0
   13.4839    1.7364    0.0000 H    0  0  0  0  0  0  0  0  0  0  0  0
   10.8168    2.6081    0.0000 H    0  0  0  0  0  0  0  0  0  0  0  0
    2.0000   -2.9934    0.0000 H    0  0  0  0  0  0  0  0  0  0  0  0
  1 25  1  0  0  0  0
  2  5  1  0  0  0  0
  2 11  1  0  0  0  0
  3 12  1  0  0  0  0
  3 44  1  0  0  0  0
  4  6  1  0  0  0  0
  4  7  1  0  0  0  0
  4  8  1  0  0  0  0
  5 10  2  0  0  0  0
  6 12  1  0  0  0  0
  6 26  1  0  0  0  0
  6 27  1  0  0  0  0
  7 13  1  0  0  0  0
  7 28  1  0  0  0  0
  7 29  1  0  0  0  0
  8 19  1  0  0  0  0
  8 30  1  0  0  0  0
  8 31  1  0  0  0  0
  9 10  1  0  0  0  0
  9 11  2  0  0  0  0
  9 15  1  0  0  0  0
 10 14  1  0  0  0  0
 11 17  1  0  0  0  0
 12 32  1  0  0  0  0
 12 33  1  0  0  0  0
 13 34  1  0  0  0  0
 13 35  1  0  0  0  0
 13 36  1  0  0  0  0
 14 20  2  0  0  0  0
 14 21  1  0  0  0  0
 15 18  2  0  0  0  0
 15 37  1  0  0  0  0
 16 17  2  0  0  0  0
 16 18  1  0  0  0  0
 16 22  1  0  0  0  0
 17 38  1  0  0  0  0
 18 39  1  0  0  0  0
 19 22  3  0  0  0  0
 20 23  1  0  0  0  0
 20 40  1  0  0  0  0
 21 24  2  0  0  0  0
 21 41  1  0  0  0  0
 23 25  2  0  0  0  0
 23 42  1  0  0  0  0
 24 25  1  0  0  0  0
 24 43  1  0  0  0  0
M  END
> <PUBCHEM_COMPOUND_CID>
22314073

> <PUBCHEM_COMPOUND_CANONICALIZED>
1

> <PUBCHEM_CACTVS_COMPLEXITY>
483

> <PUBCHEM_CACTVS_HBOND_ACCEPTOR>
4

> <PUBCHEM_CACTVS_HBOND_DONOR>
1

> <PUBCHEM_CACTVS_ROTATABLE_BOND>
6

> <PUBCHEM_CACTVS_SUBSKEYS>
AAADceB7IABAEAAAAAAAAAAAAAAAAWAAAAAwYAAAAAAAAFgB9AAAHgRASAABrAjh3gYygdMAAgDkEyRiQAiDABAgAARImDgoRLgKMKKAkZGAIARggACYyhcQgMAOQgAAgAAEAACEAAEAAAgAAAAAAAAAAA==

> <PUBCHEM_IUPAC_OPENEYE_NAME>
2-[3-[3-(4-bromophenyl)-1,2-benzothiazol-6-yl]prop-2-ynyl-ethyl-amino]ethanol

> <PUBCHEM_IUPAC_CAS_NAME>
2-[3-[3-(4-bromophenyl)-1,2-benzothiazol-6-yl]prop-2-ynyl-ethylamino]ethanol

> <PUBCHEM_IUPAC_NAME>
2-[3-[3-(4-bromophenyl)-1,2-benzothiazol-6-yl]prop-2-ynyl-ethylamino]ethanol

> <PUBCHEM_IUPAC_SYSTEMATIC_NAME>
2-[3-[3-(4-bromophenyl)-1,2-benzothiazol-6-yl]prop-2-ynyl-ethyl-amino]ethanol

> <PUBCHEM_IUPAC_TRADITIONAL_NAME>
2-[3-[3-(4-bromophenyl)-1,2-benzothiazol-6-yl]prop-2-ynyl-ethyl-amino]ethanol

> <PUBCHEM_IUPAC_INCHI>
InChI=1S/C20H19BrN2OS/c1-2-23(12-13-24)11-3-4-15-5-10-18-19(14-15)25-22-20(18)16-6-8-17(21)9-7-16/h5-10,14,24H,2,11-13H2,1H3

> <PUBCHEM_IUPAC_INCHIKEY>
VTPNTVUICORZGI-UHFFFAOYSA-N

> <PUBCHEM_XLOGP3_AA>
4.6

> <PUBCHEM_EXACT_MASS>
414.040146

> <PUBCHEM_MOLECULAR_FORMULA>
C20H19BrN2OS

> <PUBCHEM_MOLECULAR_WEIGHT>
415.34666

> <PUBCHEM_OPENEYE_CAN_SMILES>
CCN(CCO)CC#CC1=CC2=C(C=C1)C(=NS2)C3=CC=C(C=C3)Br

> <PUBCHEM_OPENEYE_ISO_SMILES>
CCN(CCO)CC#CC1=CC2=C(C=C1)C(=NS2)C3=CC=C(C=C3)Br

> <PUBCHEM_CACTVS_TPSA>
64.6

> <PUBCHEM_MONOISOTOPIC_WEIGHT>
414.040146

> <PUBCHEM_TOTAL_CHARGE>
0

> <PUBCHEM_HEAVY_ATOM_COUNT>
25

> <PUBCHEM_ATOM_DEF_STEREO_COUNT>
0

> <PUBCHEM_ATOM_UDEF_STEREO_COUNT>
0

> <PUBCHEM_BOND_DEF_STEREO_COUNT>
0

> <PUBCHEM_BOND_UDEF_STEREO_COUNT>
0

> <PUBCHEM_ISOTOPIC_ATOM_COUNT>
0

> <PUBCHEM_COMPONENT_COUNT>
1

> <PUBCHEM_CACTVS_TAUTO_COUNT>
1

> <PUBCHEM_COORDINATE_TYPE>
1 __ 5 __ 255

> <PUBCHEM_BONDANNOTATIONS>
11  17  8 __ 14  20  8 __ 14  21  8 __ 15  18  8 __ 16  17  8 __ 16  18  8 __ 2  11  8 __ 2  5  8 __ 20  23  8 __ 21  24  8 __ 23  25  8 __ 24  25  8 __ 5  10  8 __ 9  10  8 __ 9  11  8 __ 9  15  8 __ 

$$$$
