24789768
ChemmineR-0425141737XD

 55 58  0     0  0  0  0  0  0999 V2000
    8.8600   -3.1534    0.0000 S   0  0  0  0  0  0  0  0  0  0  0  0
    7.2764   -3.9581    0.0000 S   0  0  0  0  0  0  0  0  0  0  0  0
    8.8600   -4.1534    0.0000 O   0  0  0  0  0  0  0  0  0  0  0  0
    8.8600   -2.1534    0.0000 O   0  0  0  0  0  0  0  0  0  0  0  0
    3.7320   -4.1534    0.0000 O   0  0  0  0  0  0  0  0  0  0  0  0
    5.4641    0.8466    0.0000 O   0  0  0  0  0  0  0  0  0  0  0  0
    3.7320    1.8466    0.0000 O   0  0  0  0  0  0  0  0  0  0  0  0
    3.6750    3.9344    0.0000 O   0  0  0  0  0  0  0  0  0  0  0  0
    2.0000    1.8466    0.0000 O   0  0  0  0  0  0  0  0  0  0  0  0
    6.3301   -2.6534    0.0000 N   0  0  0  0  0  0  0  0  0  0  0  0
    7.2764   -2.3487    0.0000 N   0  0  0  0  0  0  0  0  0  0  0  0
    5.4641   -4.1534    0.0000 N   0  0  0  0  0  0  0  0  0  0  0  0
    5.4641   -1.1534    0.0000 N   0  0  0  0  0  0  0  0  0  0  0  0
   10.3600   -4.0194    0.0000 C   0  0  0  0  0  0  0  0  0  0  0  0
    9.8600   -3.1534    0.0000 C   0  0  0  0  0  0  0  0  0  0  0  0
   11.3600   -4.0194    0.0000 C   0  0  0  0  0  0  0  0  0  0  0  0
    9.8600   -4.8854    0.0000 C   0  0  0  0  0  0  0  0  0  0  0  0
    7.8600   -3.1534    0.0000 C   0  0  0  0  0  0  0  0  0  0  0  0
    6.3301   -3.6534    0.0000 C   0  0  0  0  0  0  0  0  0  0  0  0
    5.4641   -2.1534    0.0000 C   0  0  0  0  0  0  0  0  0  0  0  0
    4.5981   -2.6534    0.0000 C   0  0  0  0  0  0  0  0  0  0  0  0
    4.5981   -3.6534    0.0000 C   0  0  0  0  0  0  0  0  0  0  0  0
    3.7320   -2.1534    0.0000 C   0  0  0  0  0  0  0  0  0  0  0  0
    3.7320   -1.1534    0.0000 C   0  0  0  0  0  0  0  0  0  0  0  0
    4.5981   -0.6534    0.0000 C   0  0  0  0  0  0  0  0  0  0  0  0
    2.8660   -0.6534    0.0000 C   0  0  0  0  0  0  0  0  0  0  0  0
    4.5981    0.3466    0.0000 C   0  0  0  0  0  0  0  0  0  0  0  0
    3.7320    0.8466    0.0000 C   0  0  0  0  0  0  0  0  0  0  0  0
    2.8660    0.3466    0.0000 C   0  0  0  0  0  0  0  0  0  0  0  0
    2.8660    2.3466    0.0000 C   0  0  0  0  0  0  0  0  0  0  0  0
    5.4641    1.8466    0.0000 C   0  0  0  0  0  0  0  0  0  0  0  0
    2.8660    3.3466    0.0000 C   0  0  0  0  0  0  0  0  0  0  0  0
    2.0570    3.9344    0.0000 C   0  0  0  0  0  0  0  0  0  0  0  0
    2.3660    4.8854    0.0000 C   0  0  0  0  0  0  0  0  0  0  0  0
    3.3660    4.8854    0.0000 C   0  0  0  0  0  0  0  0  0  0  0  0
   10.6700   -4.5564    0.0000 H   0  0  0  0  0  0  0  0  0  0  0  0
   10.4426   -2.9413    0.0000 H   0  0  0  0  0  0  0  0  0  0  0  0
    9.7523   -2.5428    0.0000 H   0  0  0  0  0  0  0  0  0  0  0  0
   11.3600   -4.6394    0.0000 H   0  0  0  0  0  0  0  0  0  0  0  0
    9.3230   -4.5754    0.0000 H   0  0  0  0  0  0  0  0  0  0  0  0
    9.5500   -5.4224    0.0000 H   0  0  0  0  0  0  0  0  0  0  0  0
   10.3969   -5.1954    0.0000 H   0  0  0  0  0  0  0  0  0  0  0  0
   11.9800   -4.0194    0.0000 H   0  0  0  0  0  0  0  0  0  0  0  0
   11.3600   -3.3994    0.0000 H   0  0  0  0  0  0  0  0  0  0  0  0
    3.1951   -2.4634    0.0000 H   0  0  0  0  0  0  0  0  0  0  0  0
    5.1350   -0.9634    0.0000 H   0  0  0  0  0  0  0  0  0  0  0  0
    2.3291   -0.9634    0.0000 H   0  0  0  0  0  0  0  0  0  0  0  0
    6.0010   -0.8434    0.0000 H   0  0  0  0  0  0  0  0  0  0  0  0
    2.3291    0.6566    0.0000 H   0  0  0  0  0  0  0  0  0  0  0  0
    6.0841    1.8466    0.0000 H   0  0  0  0  0  0  0  0  0  0  0  0
    5.4641    2.4666    0.0000 H   0  0  0  0  0  0  0  0  0  0  0  0
    4.8441    1.8466    0.0000 H   0  0  0  0  0  0  0  0  0  0  0  0
    1.4674    3.7428    0.0000 H   0  0  0  0  0  0  0  0  0  0  0  0
    2.0016    5.3870    0.0000 H   0  0  0  0  0  0  0  0  0  0  0  0
    3.7304    5.3870    0.0000 H   0  0  0  0  0  0  0  0  0  0  0  0
  1  3  2  0  0  0  0
  1  4  2  0  0  0  0
  1 15  1  0  0  0  0
  1 18  1  0  0  0  0
  2 18  1  0  0  0  0
  2 19  1  0  0  0  0
  5 22  2  0  0  0  0
  6 27  1  0  0  0  0
  6 31  1  0  0  0  0
  7 28  1  0  0  0  0
  7 30  1  0  0  0  0
  8 32  1  0  0  0  0
  8 35  1  0  0  0  0
  9 30  2  0  0  0  0
 10 11  1  0  0  0  0
 10 19  1  0  0  0  0
 10 20  1  0  0  0  0
 11 18  2  0  0  0  0
 12 19  2  0  0  0  0
 12 22  1  0  0  0  0
 13 20  2  0  0  0  0
 13 48  1  0  0  0  0
 14 15  1  0  0  0  0
 14 16  1  0  0  0  0
 14 17  1  0  0  0  0
 14 36  1  0  0  0  0
 15 37  1  0  0  0  0
 15 38  1  0  0  0  0
 16 39  1  0  0  0  0
 16 43  1  0  0  0  0
 16 44  1  0  0  0  0
 17 40  1  0  0  0  0
 17 41  1  0  0  0  0
 17 42  1  0  0  0  0
 20 21  1  0  0  0  0
 21 22  1  0  0  0  0
 21 23  2  0  0  0  0
 23 24  1  0  0  0  0
 23 45  1  0  0  0  0
 24 25  2  0  0  0  0
 24 26  1  0  0  0  0
 25 27  1  0  0  0  0
 25 46  1  0  0  0  0
 26 29  2  0  0  0  0
 26 47  1  0  0  0  0
 27 28  2  0  0  0  0
 28 29  1  0  0  0  0
 29 49  1  0  0  0  0
 30 32  1  0  0  0  0
 31 50  1  0  0  0  0
 31 51  1  0  0  0  0
 31 52  1  0  0  0  0
 32 33  2  0  0  0  0
 33 34  1  0  0  0  0
 33 53  1  0  0  0  0
 34 35  2  0  0  0  0
 34 54  1  0  0  0  0
 35 55  1  0  0  0  0
M  END
> <PUBCHEM_COMPOUND_CID>
24789768

> <PUBCHEM_COMPOUND_CANONICALIZED>
1

> <PUBCHEM_CACTVS_COMPLEXITY>
1090

> <PUBCHEM_CACTVS_HBOND_ACCEPTOR>
10

> <PUBCHEM_CACTVS_HBOND_DONOR>
1

> <PUBCHEM_CACTVS_ROTATABLE_BOND>
8

> <PUBCHEM_CACTVS_SUBSKEYS>
AAADceB7uABgAAAAAAAAAAAAAAAAASIAAAAwQAAAAAAAAEABwAAAHgQYAAAADQSl2AKzDoJABEqoAqvyvHLSGQHkIBAZiAFmiNgNJjqkfR6GOyKkwBEKqYeI5hgOIAABAAAAQABAAAIAAACAAAAAAAAAAA==

> <PUBCHEM_IUPAC_OPENEYE_NAME>
[4-[(E)-(5-imino-2-isobutylsulfonyl-7-oxo-[1,3,4]thiadiazolo[3,2-a]pyrimidin-6-ylidene)methyl]-2-methoxy-phenyl] furan-2-carboxylate

> <PUBCHEM_IUPAC_CAS_NAME>
2-furancarboxylic acid [4-[(E)-[5-imino-2-(2-methylpropylsulfonyl)-7-oxo-[1,3,4]thiadiazolo[3,2-a]pyrimidin-6-ylidene]methyl]-2-methoxyphenyl] ester

> <PUBCHEM_IUPAC_NAME>
[4-[(E)-[5-imino-2-(2-methylpropylsulfonyl)-7-oxo-[1,3,4]thiadiazolo[3,2-a]pyrimidin-6-ylidene]methyl]-2-methoxyphenyl] furan-2-carboxylate

> <PUBCHEM_IUPAC_SYSTEMATIC_NAME>
[4-[(E)-[5-azanylidene-2-(2-methylpropylsulfonyl)-7-oxidanylidene-[1,3,4]thiadiazolo[3,2-a]pyrimidin-6-ylidene]methyl]-2-methoxy-phenyl] furan-2-carboxylate

> <PUBCHEM_IUPAC_TRADITIONAL_NAME>
furan-2-carboxylic acid [4-[(E)-(5-imino-2-isobutylsulfonyl-7-keto-[1,3,4]thiadiazolo[3,2-a]pyrimidin-6-ylidene)methyl]-2-methoxy-phenyl] ester

> <PUBCHEM_IUPAC_INCHI>
InChI=1S/C22H20N4O7S2/c1-12(2)11-35(29,30)22-25-26-18(23)14(19(27)24-21(26)34-22)9-13-6-7-15(17(10-13)31-3)33-20(28)16-5-4-8-32-16/h4-10,12,23H,11H2,1-3H3/b14-9+,23-18?

> <PUBCHEM_IUPAC_INCHIKEY>
RCWFRFIVBPIXNV-OLKKAHHKSA-N

> <PUBCHEM_XLOGP3_AA>
4

> <PUBCHEM_EXACT_MASS>
516.077341

> <PUBCHEM_MOLECULAR_FORMULA>
C22H20N4O7S2

> <PUBCHEM_MOLECULAR_WEIGHT>
516.5468

> <PUBCHEM_OPENEYE_CAN_SMILES>
CC(C)CS(=O)(=O)C1=NN2C(=N)C(=CC3=CC(=C(C=C3)OC(=O)C4=CC=CO4)OC)C(=O)N=C2S1

> <PUBCHEM_OPENEYE_ISO_SMILES>
CC(C)CS(=O)(=O)C1=NN2C(=N)/C(=C\C3=CC(=C(C=C3)OC(=O)C4=CC=CO4)OC)/C(=O)N=C2S1

> <PUBCHEM_CACTVS_TPSA>
185

> <PUBCHEM_MONOISOTOPIC_WEIGHT>
516.077341

> <PUBCHEM_TOTAL_CHARGE>
0

> <PUBCHEM_HEAVY_ATOM_COUNT>
35

> <PUBCHEM_ATOM_DEF_STEREO_COUNT>
0

> <PUBCHEM_ATOM_UDEF_STEREO_COUNT>
0

> <PUBCHEM_BOND_DEF_STEREO_COUNT>
1

> <PUBCHEM_BOND_UDEF_STEREO_COUNT>
0

> <PUBCHEM_ISOTOPIC_ATOM_COUNT>
0

> <PUBCHEM_COMPONENT_COUNT>
1

> <PUBCHEM_CACTVS_TAUTO_COUNT>
1

> <PUBCHEM_COORDINATE_TYPE>
1 __ 5 __ 255

> <PUBCHEM_BONDANNOTATIONS>
24  25  8 __ 24  26  8 __ 25  27  8 __ 26  29  8 __ 27  28  8 __ 28  29  8 __ 32  33  8 __ 33  34  8 __ 34  35  8 __ 8  32  8 __ 8  35  8 __ 

$$$$
