25169484
ChemmineR-0425141737XD

 31 33  0     0  0  0  0  0  0999 V2000
    2.8660    3.0600    0.0000 O   0  0  0  0  0  0  0  0  0  0  0  0
    4.5981    0.0600    0.0000 N   0  0  0  0  0  0  0  0  0  0  0  0
    6.4103   -1.1353    0.0000 N   0  0  0  0  0  0  0  0  0  0  0  0
    3.7320   -1.4400    0.0000 N   0  0  0  0  0  0  0  0  0  0  0  0
    6.4103   -2.7447    0.0000 N   0  0  0  0  0  0  0  0  0  0  0  0
    4.5981   -2.9400    0.0000 N   0  0  0  0  0  0  0  0  0  0  0  0
    2.8660   -2.9400    0.0000 N   0  0  0  0  0  0  0  0  0  0  0  0
    5.4641   -1.4400    0.0000 C   0  0  0  0  0  0  0  0  0  0  0  0
    4.5981   -0.9400    0.0000 C   0  0  0  0  0  0  0  0  0  0  0  0
    3.7320    0.5600    0.0000 C   0  0  0  0  0  0  0  0  0  0  0  0
    5.4641   -2.4400    0.0000 C   0  0  0  0  0  0  0  0  0  0  0  0
    3.7320    1.5600    0.0000 C   0  0  0  0  0  0  0  0  0  0  0  0
    2.8660    0.0600    0.0000 C   0  0  0  0  0  0  0  0  0  0  0  0
    2.8660    2.0600    0.0000 C   0  0  0  0  0  0  0  0  0  0  0  0
    6.9939   -1.9400    0.0000 C   0  0  0  0  0  0  0  0  0  0  0  0
    3.7320   -2.4400    0.0000 C   0  0  0  0  0  0  0  0  0  0  0  0
    2.0000    0.5600    0.0000 C   0  0  0  0  0  0  0  0  0  0  0  0
    2.0000    1.5600    0.0000 C   0  0  0  0  0  0  0  0  0  0  0  0
    2.0000    3.5600    0.0000 C   0  0  0  0  0  0  0  0  0  0  0  0
    5.1350    0.3700    0.0000 H   0  0  0  0  0  0  0  0  0  0  0  0
    6.6029   -0.5459    0.0000 H   0  0  0  0  0  0  0  0  0  0  0  0
    4.2690    1.8700    0.0000 H   0  0  0  0  0  0  0  0  0  0  0  0
    2.8660   -0.5600    0.0000 H   0  0  0  0  0  0  0  0  0  0  0  0
    7.6139   -1.9400    0.0000 H   0  0  0  0  0  0  0  0  0  0  0  0
    1.4631    0.2500    0.0000 H   0  0  0  0  0  0  0  0  0  0  0  0
    1.4631    1.8700    0.0000 H   0  0  0  0  0  0  0  0  0  0  0  0
    2.8660   -3.5600    0.0000 H   0  0  0  0  0  0  0  0  0  0  0  0
    2.3291   -2.6300    0.0000 H   0  0  0  0  0  0  0  0  0  0  0  0
    2.3100    4.0969    0.0000 H   0  0  0  0  0  0  0  0  0  0  0  0
    1.4631    3.8700    0.0000 H   0  0  0  0  0  0  0  0  0  0  0  0
    1.6900    3.0231    0.0000 H   0  0  0  0  0  0  0  0  0  0  0  0
  1 14  1  0  0  0  0
  1 19  1  0  0  0  0
  2  9  1  0  0  0  0
  2 10  1  0  0  0  0
  2 20  1  0  0  0  0
  3  8  1  0  0  0  0
  3 15  1  0  0  0  0
  3 21  1  0  0  0  0
  4  9  2  0  0  0  0
  4 16  1  0  0  0  0
  5 11  1  0  0  0  0
  5 15  2  0  0  0  0
  6 11  1  0  0  0  0
  6 16  2  0  0  0  0
  7 16  1  0  0  0  0
  7 27  1  0  0  0  0
  7 28  1  0  0  0  0
  8  9  1  0  0  0  0
  8 11  2  0  0  0  0
 10 12  2  0  0  0  0
 10 13  1  0  0  0  0
 12 14  1  0  0  0  0
 12 22  1  0  0  0  0
 13 17  2  0  0  0  0
 13 23  1  0  0  0  0
 14 18  2  0  0  0  0
 15 24  1  0  0  0  0
 17 18  1  0  0  0  0
 17 25  1  0  0  0  0
 18 26  1  0  0  0  0
 19 29  1  0  0  0  0
 19 30  1  0  0  0  0
 19 31  1  0  0  0  0
M  END
> <PUBCHEM_COMPOUND_CID>
25169484

> <PUBCHEM_COMPOUND_CANONICALIZED>
1

> <PUBCHEM_CACTVS_COMPLEXITY>
304

> <PUBCHEM_CACTVS_HBOND_ACCEPTOR>
6

> <PUBCHEM_CACTVS_HBOND_DONOR>
3

> <PUBCHEM_CACTVS_ROTATABLE_BOND>
3

> <PUBCHEM_CACTVS_SUBSKEYS>
AAADccBzoAAAAAAAAAAAAAAAAAAAAWAAAAA8QAAAAAAAAFgB/AAAHgAQAAAACAyBlwY39r7JlACgASZjZACCiC2xMqAJ2aAufJiMbmLE+duUNChu0BvI6CeQUAMAAAAAAgAAAAAAAAAEAAAAAAAAAAAAAA==

> <PUBCHEM_IUPAC_OPENEYE_NAME>
N6-(3-methoxyphenyl)-7H-purine-2,6-diamine

> <PUBCHEM_IUPAC_CAS_NAME>
N6-(3-methoxyphenyl)-7H-purine-2,6-diamine

> <PUBCHEM_IUPAC_NAME>
6-N-(3-methoxyphenyl)-7H-purine-2,6-diamine

> <PUBCHEM_IUPAC_SYSTEMATIC_NAME>
N6-(3-methoxyphenyl)-7H-purine-2,6-diamine

> <PUBCHEM_IUPAC_TRADITIONAL_NAME>
(2-amino-7H-purin-6-yl)-(3-methoxyphenyl)amine

> <PUBCHEM_IUPAC_INCHI>
InChI=1S/C12H12N6O/c1-19-8-4-2-3-7(5-8)16-11-9-10(15-6-14-9)17-12(13)18-11/h2-6H,1H3,(H4,13,14,15,16,17,18)

> <PUBCHEM_IUPAC_INCHIKEY>
VYIBHYMWGFDSDR-UHFFFAOYSA-N

> <PUBCHEM_XLOGP3>
1.3

> <PUBCHEM_EXACT_MASS>
256.107259

> <PUBCHEM_MOLECULAR_FORMULA>
C12H12N6O

> <PUBCHEM_MOLECULAR_WEIGHT>
256.26328

> <PUBCHEM_OPENEYE_CAN_SMILES>
COC1=CC=CC(=C1)NC2=NC(=NC3=C2NC=N3)N

> <PUBCHEM_OPENEYE_ISO_SMILES>
COC1=CC=CC(=C1)NC2=NC(=NC3=C2NC=N3)N

> <PUBCHEM_CACTVS_TPSA>
102

> <PUBCHEM_MONOISOTOPIC_WEIGHT>
256.107259

> <PUBCHEM_TOTAL_CHARGE>
0

> <PUBCHEM_HEAVY_ATOM_COUNT>
19

> <PUBCHEM_ATOM_DEF_STEREO_COUNT>
0

> <PUBCHEM_ATOM_UDEF_STEREO_COUNT>
0

> <PUBCHEM_BOND_DEF_STEREO_COUNT>
0

> <PUBCHEM_BOND_UDEF_STEREO_COUNT>
0

> <PUBCHEM_ISOTOPIC_ATOM_COUNT>
0

> <PUBCHEM_COMPONENT_COUNT>
1

> <PUBCHEM_CACTVS_TAUTO_COUNT>
26

> <PUBCHEM_COORDINATE_TYPE>
1 __ 5 __ 255

> <PUBCHEM_BONDANNOTATIONS>
10  12  8 __ 10  13  8 __ 12  14  8 __ 13  17  8 __ 14  18  8 __ 17  18  8 __ 3  15  8 __ 3  8  8 __ 4  16  8 __ 4  9  8 __ 5  11  8 __ 5  15  8 __ 6  11  8 __ 6  16  8 __ 8  11  8 __ 8  9  8 __ 

$$$$
