25169349
ChemmineR-0425141737XD

 29 31  0     0  0  0  0  0  0999 V2000
    2.8660   -3.0000    0.0000 Cl   0  0  0  0  0  0  0  0  0  0  0  0
    4.5981    2.0000    0.0000 O    0  0  0  0  0  0  0  0  0  0  0  0
    4.5981    0.0000    0.0000 N    0  0  0  0  0  0  0  0  0  0  0  0
    6.4103   -1.1953    0.0000 N    0  0  0  0  0  0  0  0  0  0  0  0
    3.7320   -1.5000    0.0000 N    0  0  0  0  0  0  0  0  0  0  0  0
    6.4103   -2.8047    0.0000 N    0  0  0  0  0  0  0  0  0  0  0  0
    4.5981   -3.0000    0.0000 N    0  0  0  0  0  0  0  0  0  0  0  0
    5.4641   -1.5000    0.0000 C    0  0  0  0  0  0  0  0  0  0  0  0
    4.5981   -1.0000    0.0000 C    0  0  0  0  0  0  0  0  0  0  0  0
    3.7320    0.5000    0.0000 C    0  0  0  0  0  0  0  0  0  0  0  0
    5.4641   -2.5000    0.0000 C    0  0  0  0  0  0  0  0  0  0  0  0
    3.7320    1.5000    0.0000 C    0  0  0  0  0  0  0  0  0  0  0  0
    2.8660    0.0000    0.0000 C    0  0  0  0  0  0  0  0  0  0  0  0
    6.9939   -2.0000    0.0000 C    0  0  0  0  0  0  0  0  0  0  0  0
    2.8660    2.0000    0.0000 C    0  0  0  0  0  0  0  0  0  0  0  0
    2.0000    0.5000    0.0000 C    0  0  0  0  0  0  0  0  0  0  0  0
    2.0000    1.5000    0.0000 C    0  0  0  0  0  0  0  0  0  0  0  0
    3.7320   -2.5000    0.0000 C    0  0  0  0  0  0  0  0  0  0  0  0
    4.5981    3.0000    0.0000 C    0  0  0  0  0  0  0  0  0  0  0  0
    5.1350    0.3100    0.0000 H    0  0  0  0  0  0  0  0  0  0  0  0
    6.6029   -0.6059    0.0000 H    0  0  0  0  0  0  0  0  0  0  0  0
    2.8660   -0.6200    0.0000 H    0  0  0  0  0  0  0  0  0  0  0  0
    7.6139   -2.0000    0.0000 H    0  0  0  0  0  0  0  0  0  0  0  0
    2.8660    2.6200    0.0000 H    0  0  0  0  0  0  0  0  0  0  0  0
    1.4631    0.1900    0.0000 H    0  0  0  0  0  0  0  0  0  0  0  0
    1.4631    1.8100    0.0000 H    0  0  0  0  0  0  0  0  0  0  0  0
    5.2181    3.0000    0.0000 H    0  0  0  0  0  0  0  0  0  0  0  0
    4.5981    3.6200    0.0000 H    0  0  0  0  0  0  0  0  0  0  0  0
    3.9781    3.0000    0.0000 H    0  0  0  0  0  0  0  0  0  0  0  0
  1 18  1  0  0  0  0
  2 12  1  0  0  0  0
  2 19  1  0  0  0  0
  3  9  1  0  0  0  0
  3 10  1  0  0  0  0
  3 20  1  0  0  0  0
  4  8  1  0  0  0  0
  4 14  1  0  0  0  0
  4 21  1  0  0  0  0
  5  9  2  0  0  0  0
  5 18  1  0  0  0  0
  6 11  1  0  0  0  0
  6 14  2  0  0  0  0
  7 11  1  0  0  0  0
  7 18  2  0  0  0  0
  8  9  1  0  0  0  0
  8 11  2  0  0  0  0
 10 12  1  0  0  0  0
 10 13  2  0  0  0  0
 12 15  2  0  0  0  0
 13 16  1  0  0  0  0
 13 22  1  0  0  0  0
 14 23  1  0  0  0  0
 15 17  1  0  0  0  0
 15 24  1  0  0  0  0
 16 17  2  0  0  0  0
 16 25  1  0  0  0  0
 17 26  1  0  0  0  0
 19 27  1  0  0  0  0
 19 28  1  0  0  0  0
 19 29  1  0  0  0  0
M  END
> <PUBCHEM_COMPOUND_CID>
25169349

> <PUBCHEM_COMPOUND_CANONICALIZED>
1

> <PUBCHEM_CACTVS_COMPLEXITY>
308

> <PUBCHEM_CACTVS_HBOND_ACCEPTOR>
5

> <PUBCHEM_CACTVS_HBOND_DONOR>
2

> <PUBCHEM_CACTVS_ROTATABLE_BOND>
3

> <PUBCHEM_CACTVS_SUBSKEYS>
AAADccBzoAAEAAAAAAAAAAAAAAAAAWAAAAA8QAAAAAAAAFgB/AAAHgIQAAAACAyBlwY39r7JlACgASZjZACCiC2xMqAJ2aAvfJiObmLE+duVNChs0BPY6CeQQAAAAAAAAAAAEAAAAAAAAAAgAAAAAAAAAA==

> <PUBCHEM_IUPAC_OPENEYE_NAME>
2-chloro-N-(2-methoxyphenyl)-7H-purin-6-amine

> <PUBCHEM_IUPAC_CAS_NAME>
2-chloro-N-(2-methoxyphenyl)-7H-purin-6-amine

> <PUBCHEM_IUPAC_NAME>
2-chloro-N-(2-methoxyphenyl)-7H-purin-6-amine

> <PUBCHEM_IUPAC_SYSTEMATIC_NAME>
2-chloranyl-N-(2-methoxyphenyl)-7H-purin-6-amine

> <PUBCHEM_IUPAC_TRADITIONAL_NAME>
(2-chloro-7H-purin-6-yl)-(2-methoxyphenyl)amine

> <PUBCHEM_IUPAC_INCHI>
InChI=1S/C12H10ClN5O/c1-19-8-5-3-2-4-7(8)16-11-9-10(15-6-14-9)17-12(13)18-11/h2-6H,1H3,(H2,14,15,16,17,18)

> <PUBCHEM_IUPAC_INCHIKEY>
UDSYDQBRCXFWHS-UHFFFAOYSA-N

> <PUBCHEM_XLOGP3_AA>
2.9

> <PUBCHEM_EXACT_MASS>
275.057388

> <PUBCHEM_MOLECULAR_FORMULA>
C12H10ClN5O

> <PUBCHEM_MOLECULAR_WEIGHT>
275.6937

> <PUBCHEM_OPENEYE_CAN_SMILES>
COC1=CC=CC=C1NC2=NC(=NC3=C2NC=N3)Cl

> <PUBCHEM_OPENEYE_ISO_SMILES>
COC1=CC=CC=C1NC2=NC(=NC3=C2NC=N3)Cl

> <PUBCHEM_CACTVS_TPSA>
75.7

> <PUBCHEM_MONOISOTOPIC_WEIGHT>
275.057388

> <PUBCHEM_TOTAL_CHARGE>
0

> <PUBCHEM_HEAVY_ATOM_COUNT>
19

> <PUBCHEM_ATOM_DEF_STEREO_COUNT>
0

> <PUBCHEM_ATOM_UDEF_STEREO_COUNT>
0

> <PUBCHEM_BOND_DEF_STEREO_COUNT>
0

> <PUBCHEM_BOND_UDEF_STEREO_COUNT>
0

> <PUBCHEM_ISOTOPIC_ATOM_COUNT>
0

> <PUBCHEM_COMPONENT_COUNT>
1

> <PUBCHEM_CACTVS_TAUTO_COUNT>
8

> <PUBCHEM_COORDINATE_TYPE>
1 __ 5 __ 255

> <PUBCHEM_BONDANNOTATIONS>
10  12  8 __ 10  13  8 __ 12  15  8 __ 13  16  8 __ 15  17  8 __ 16  17  8 __ 4  14  8 __ 4  8  8 __ 5  18  8 __ 5  9  8 __ 6  11  8 __ 6  14  8 __ 7  11  8 __ 7  18  8 __ 8  11  8 __ 8  9  8 __ 

$$$$
