44341780
ChemmineR-0425141737XD

 67 68  0     1  0  0  0  0  0999 V2000
    0.0000    0.6200    0.0000 Br   0  0  0  0  0  0  0  0  0  0  0  0
    3.5443    0.8153    0.0000 S    0  0  0  0  0  0  0  0  0  0  0  0
    4.7870    6.2268    0.0000 O    0  0  0  0  0  0  0  0  0  0  0  0
    8.0848   15.9707    0.0000 O    0  0  0  0  0  0  0  0  0  0  0  0
    3.7547   15.4707    0.0000 O    0  0  0  0  0  0  0  0  0  0  0  0
    7.2188   14.4707    0.0000 O    0  0  0  0  0  0  0  0  0  0  0  0
    4.6207   16.9707    0.0000 O    0  0  0  0  0  0  0  0  0  0  0  0
    9.6330    9.9032    0.0000 N    0  0  3  0  0  0  0  0  0  0  0  0
    4.1279    1.6200    0.0000 N    0  0  0  0  0  0  0  0  0  0  0  0
    7.3653    8.5403    0.0000 C    0  0  0  0  0  0  0  0  0  0  0  0
    8.3438    8.7465    0.0000 C    0  0  0  0  0  0  0  0  0  0  0  0
    7.0546    7.5898    0.0000 C    0  0  0  0  0  0  0  0  0  0  0  0
    8.6544    9.6970    0.0000 C    0  0  0  0  0  0  0  0  0  0  0  0
    6.0761    7.3836    0.0000 C    0  0  0  0  0  0  0  0  0  0  0  0
    5.7655    6.4330    0.0000 C    0  0  0  0  0  0  0  0  0  0  0  0
    9.9436   10.8538    0.0000 C    0  0  0  0  0  0  0  0  0  0  0  0
   10.3008    9.1590    0.0000 C    0  0  0  0  0  0  0  0  0  0  0  0
    4.4763    5.2763    0.0000 C    0  0  0  0  0  0  0  0  0  0  0  0
   10.9221   11.0600    0.0000 C    0  0  0  0  0  0  0  0  0  0  0  0
    3.8550    3.3752    0.0000 C    0  0  0  0  0  0  0  0  0  0  0  0
    3.4978    5.0701    0.0000 C    0  0  0  0  0  0  0  0  0  0  0  0
    5.1441    4.5320    0.0000 C    0  0  0  0  0  0  0  0  0  0  0  0
    3.5443    2.4247    0.0000 C    0  0  0  0  0  0  0  0  0  0  0  0
    3.1871    4.1196    0.0000 C    0  0  0  0  0  0  0  0  0  0  0  0
    4.8335    3.5815    0.0000 C    0  0  0  0  0  0  0  0  0  0  0  0
    2.5981    2.1200    0.0000 C    0  0  0  0  0  0  0  0  0  0  0  0
    2.5981    1.1200    0.0000 C    0  0  0  0  0  0  0  0  0  0  0  0
   11.2328   12.0105    0.0000 C    0  0  0  0  0  0  0  0  0  0  0  0
    1.7320    2.6200    0.0000 C    0  0  0  0  0  0  0  0  0  0  0  0
    1.7320    0.6200    0.0000 C    0  0  0  0  0  0  0  0  0  0  0  0
    0.8660    2.1200    0.0000 C    0  0  0  0  0  0  0  0  0  0  0  0
    0.8660    1.1200    0.0000 C    0  0  0  0  0  0  0  0  0  0  0  0
    5.4867   15.4707    0.0000 C    0  0  0  0  0  0  0  0  0  0  0  0
    6.3527   15.9707    0.0000 C    0  0  0  0  0  0  0  0  0  0  0  0
    4.6207   15.9707    0.0000 C    0  0  0  0  0  0  0  0  0  0  0  0
    7.2188   15.4707    0.0000 C    0  0  0  0  0  0  0  0  0  0  0  0
    7.3447    9.1600    0.0000 H    0  0  0  0  0  0  0  0  0  0  0  0
    6.7515    8.6276    0.0000 H    0  0  0  0  0  0  0  0  0  0  0  0
    8.3644    8.1268    0.0000 H    0  0  0  0  0  0  0  0  0  0  0  0
    8.9576    8.6592    0.0000 H    0  0  0  0  0  0  0  0  0  0  0  0
    7.0752    6.9701    0.0000 H    0  0  0  0  0  0  0  0  0  0  0  0
    7.6684    7.5024    0.0000 H    0  0  0  0  0  0  0  0  0  0  0  0
    8.6339   10.3167    0.0000 H    0  0  0  0  0  0  0  0  0  0  0  0
    8.0406    9.7844    0.0000 H    0  0  0  0  0  0  0  0  0  0  0  0
    6.0556    8.0032    0.0000 H    0  0  0  0  0  0  0  0  0  0  0  0
    5.4623    7.4709    0.0000 H    0  0  0  0  0  0  0  0  0  0  0  0
    5.7860    5.8134    0.0000 H    0  0  0  0  0  0  0  0  0  0  0  0
    6.3793    6.3457    0.0000 H    0  0  0  0  0  0  0  0  0  0  0  0
    9.9230   11.4734    0.0000 H    0  0  0  0  0  0  0  0  0  0  0  0
    9.3298   10.9411    0.0000 H    0  0  0  0  0  0  0  0  0  0  0  0
    9.8393    8.7449    0.0000 H    0  0  0  0  0  0  0  0  0  0  0  0
   10.7149    8.6975    0.0000 H    0  0  0  0  0  0  0  0  0  0  0  0
   10.7623    9.5730    0.0000 H    0  0  0  0  0  0  0  0  0  0  0  0
   11.3362   10.5985    0.0000 H    0  0  0  0  0  0  0  0  0  0  0  0
    3.0837    5.5315    0.0000 H    0  0  0  0  0  0  0  0  0  0  0  0
    5.7508    4.6598    0.0000 H    0  0  0  0  0  0  0  0  0  0  0  0
    2.5804    3.9917    0.0000 H    0  0  0  0  0  0  0  0  0  0  0  0
    5.2475    3.1200    0.0000 H    0  0  0  0  0  0  0  0  0  0  0  0
   11.8395   12.1384    0.0000 H    0  0  0  0  0  0  0  0  0  0  0  0
   10.8187   12.4720    0.0000 H    0  0  0  0  0  0  0  0  0  0  0  0
    1.7320    3.2400    0.0000 H    0  0  0  0  0  0  0  0  0  0  0  0
    1.7320    0.0000    0.0000 H    0  0  0  0  0  0  0  0  0  0  0  0
    0.3291    2.4300    0.0000 H    0  0  0  0  0  0  0  0  0  0  0  0
    5.4867   14.8507    0.0000 H    0  0  0  0  0  0  0  0  0  0  0  0
    6.3527   16.5907    0.0000 H    0  0  0  0  0  0  0  0  0  0  0  0
    8.6217   15.6607    0.0000 H    0  0  0  0  0  0  0  0  0  0  0  0
    3.2177   15.7807    0.0000 H    0  0  0  0  0  0  0  0  0  0  0  0
  1 32  1  0  0  0  0
  2  9  1  0  0  0  0
  2 27  1  0  0  0  0
  3 15  1  0  0  0  0
  3 18  1  0  0  0  0
  4 36  1  0  0  0  0
  4 66  1  0  0  0  0
  5 35  1  0  0  0  0
  5 67  1  0  0  0  0
  6 36  2  0  0  0  0
  7 35  2  0  0  0  0
  8 13  1  0  0  0  0
  8 16  1  0  0  0  0
  8 17  1  0  0  0  0
  9 23  2  0  0  0  0
 10 11  1  0  0  0  0
 10 12  1  0  0  0  0
 10 37  1  0  0  0  0
 10 38  1  0  0  0  0
 11 13  1  0  0  0  0
 11 39  1  0  0  0  0
 11 40  1  0  0  0  0
 12 14  1  0  0  0  0
 12 41  1  0  0  0  0
 12 42  1  0  0  0  0
 13 43  1  0  0  0  0
 13 44  1  0  0  0  0
 14 15  1  0  0  0  0
 14 45  1  0  0  0  0
 14 46  1  0  0  0  0
 15 47  1  0  0  0  0
 15 48  1  0  0  0  0
 16 19  1  0  0  0  0
 16 49  1  0  0  0  0
 16 50  1  0  0  0  0
 17 51  1  0  0  0  0
 17 52  1  0  0  0  0
 17 53  1  0  0  0  0
 18 21  2  0  0  0  0
 18 22  1  0  0  0  0
 19 28  2  0  0  0  0
 19 54  1  0  0  0  0
 20 23  1  0  0  0  0
 20 24  2  0  0  0  0
 20 25  1  0  0  0  0
 21 24  1  0  0  0  0
 21 55  1  0  0  0  0
 22 25  2  0  0  0  0
 22 56  1  0  0  0  0
 23 26  1  0  0  0  0
 24 57  1  0  0  0  0
 25 58  1  0  0  0  0
 26 27  2  0  0  0  0
 26 29  1  0  0  0  0
 27 30  1  0  0  0  0
 28 59  1  0  0  0  0
 28 60  1  0  0  0  0
 29 31  2  0  0  0  0
 29 61  1  0  0  0  0
 30 32  2  0  0  0  0
 30 62  1  0  0  0  0
 31 32  1  0  0  0  0
 31 63  1  0  0  0  0
 33 34  2  0  0  0  0
 33 35  1  0  0  0  0
 33 64  1  0  0  0  0
 34 36  1  0  0  0  0
 34 65  1  0  0  0  0
M  END
> <PUBCHEM_COMPOUND_CID>
44341780

> <PUBCHEM_COMPOUND_CANONICALIZED>
1

> <PUBCHEM_CACTVS_COMPLEXITY>
577

> <PUBCHEM_CACTVS_HBOND_ACCEPTOR>
8

> <PUBCHEM_CACTVS_HBOND_DONOR>
2

> <PUBCHEM_CACTVS_ROTATABLE_BOND>
13

> <PUBCHEM_CACTVS_SUBSKEYS>
AAADceB7OABAEAAAAAAAAAAAAAAAAWAAAAAwYAAAAAAAAFgB9AAAHgRASAABrAzh3gYyj9MABgCsAyTySACDCBAgIARImDguTPgMJqKEsZuGOCTkwBGI+5eQ0OEOIgAAAAgEAABEAAAAEAgAAAAAAAAAAA==

> <PUBCHEM_IUPAC_OPENEYE_NAME>
N-allyl-6-[4-(6-bromo-1,2-benzothiazol-3-yl)phenoxy]-N-methyl-hexan-1-amine;fumaric acid

> <PUBCHEM_IUPAC_CAS_NAME>
6-[4-(6-bromo-1,2-benzothiazol-3-yl)phenoxy]-N-methyl-N-prop-2-enyl-1-hexanamine;(E)-2-butenedioic acid

> <PUBCHEM_IUPAC_NAME>
6-[4-(6-bromo-1,2-benzothiazol-3-yl)phenoxy]-N-methyl-N-prop-2-enylhexan-1-amine;(E)-but-2-enedioic acid

> <PUBCHEM_IUPAC_SYSTEMATIC_NAME>
6-[4-(6-bromanyl-1,2-benzothiazol-3-yl)phenoxy]-N-methyl-N-prop-2-enyl-hexan-1-amine;(E)-but-2-enedioic acid

> <PUBCHEM_IUPAC_TRADITIONAL_NAME>
allyl-[6-[4-(6-bromo-1,2-benzothiazol-3-yl)phenoxy]hexyl]-methyl-amine;fumaric acid

> <PUBCHEM_IUPAC_INCHI>
InChI=1S/C23H27BrN2OS.C4H4O4/c1-3-14-26(2)15-6-4-5-7-16-27-20-11-8-18(9-12-20)23-21-13-10-19(24)17-22(21)28-25-23;5-3(6)1-2-4(7)8/h3,8-13,17H,1,4-7,14-16H2,2H3;1-2H,(H,5,6)(H,7,8)/b;2-1+

> <PUBCHEM_IUPAC_INCHIKEY>
RFZPYUJPWREFIL-WLHGVMLRSA-N

> <PUBCHEM_EXACT_MASS>
574.113705

> <PUBCHEM_MOLECULAR_FORMULA>
C27H31BrN2O5S

> <PUBCHEM_MOLECULAR_WEIGHT>
575.51444

> <PUBCHEM_OPENEYE_CAN_SMILES>
CN(CCCCCCOC1=CC=C(C=C1)C2=NSC3=C2C=CC(=C3)Br)CC=C.C(=CC(=O)O)C(=O)O

> <PUBCHEM_OPENEYE_ISO_SMILES>
CN(CCCCCCOC1=CC=C(C=C1)C2=NSC3=C2C=CC(=C3)Br)CC=C.C(=C/C(=O)O)\C(=O)O

> <PUBCHEM_CACTVS_TPSA>
128

> <PUBCHEM_MONOISOTOPIC_WEIGHT>
574.113705

> <PUBCHEM_TOTAL_CHARGE>
0

> <PUBCHEM_HEAVY_ATOM_COUNT>
36

> <PUBCHEM_ATOM_DEF_STEREO_COUNT>
0

> <PUBCHEM_ATOM_UDEF_STEREO_COUNT>
0

> <PUBCHEM_BOND_DEF_STEREO_COUNT>
1

> <PUBCHEM_BOND_UDEF_STEREO_COUNT>
0

> <PUBCHEM_ISOTOPIC_ATOM_COUNT>
0

> <PUBCHEM_COMPONENT_COUNT>
2

> <PUBCHEM_CACTVS_TAUTO_COUNT>
1

> <PUBCHEM_COORDINATE_TYPE>
1 __ 5 __ 255

> <PUBCHEM_BONDANNOTATIONS>
18  21  8 __ 18  22  8 __ 2  27  8 __ 2  9  8 __ 20  24  8 __ 20  25  8 __ 21  24  8 __ 22  25  8 __ 23  26  8 __ 26  27  8 __ 26  29  8 __ 27  30  8 __ 29  31  8 __ 30  32  8 __ 31  32  8 __ 9  23  8 __ 

$$$$
