44341784
ChemmineR-0425141737XD

 71 72  0     1  0  0  0  0  0999 V2000
   13.9841    6.9514    0.0000 Br   0  0  0  0  0  0  0  0  0  0  0  0
    9.1972    1.3446    0.0000 O    0  0  0  0  0  0  0  0  0  0  0  0
    9.6391   10.4501    0.0000 O    0  0  0  0  0  0  0  0  0  0  0  0
    5.3089    9.9501    0.0000 O    0  0  0  0  0  0  0  0  0  0  0  0
    8.7730    8.9501    0.0000 O    0  0  0  0  0  0  0  0  0  0  0  0
    6.1750   11.4501    0.0000 O    0  0  0  0  0  0  0  0  0  0  0  0
    3.1350    1.8446    0.0000 N    0  0  3  0  0  0  0  0  0  0  0  0
   12.7415    1.5398    0.0000 N    0  0  0  0  0  0  0  0  0  0  0  0
   13.3251    2.3446    0.0000 N    0  0  0  0  0  0  0  0  0  0  0  0
    5.7331    1.3446    0.0000 C    0  0  0  0  0  0  0  0  0  0  0  0
    6.5991    1.8446    0.0000 C    0  0  0  0  0  0  0  0  0  0  0  0
    4.8671    1.8446    0.0000 C    0  0  0  0  0  0  0  0  0  0  0  0
    7.4651    1.3446    0.0000 C    0  0  0  0  0  0  0  0  0  0  0  0
    4.0010    1.3446    0.0000 C    0  0  0  0  0  0  0  0  0  0  0  0
    8.3312    1.8446    0.0000 C    0  0  0  0  0  0  0  0  0  0  0  0
    2.2690    1.3446    0.0000 C    0  0  0  0  0  0  0  0  0  0  0  0
   11.7953    1.8446    0.0000 C    0  0  0  0  0  0  0  0  0  0  0  0
   11.7953    2.8446    0.0000 C    0  0  0  0  0  0  0  0  0  0  0  0
   10.0632    1.8446    0.0000 C    0  0  0  0  0  0  0  0  0  0  0  0
    3.1350    2.8446    0.0000 C    0  0  0  0  0  0  0  0  0  0  0  0
   12.7415    3.1493    0.0000 C    0  0  0  0  0  0  0  0  0  0  0  0
   10.9292    1.3446    0.0000 C    0  0  0  0  0  0  0  0  0  0  0  0
   10.9292    3.3446    0.0000 C    0  0  0  0  0  0  0  0  0  0  0  0
   10.0632    2.8446    0.0000 C    0  0  0  0  0  0  0  0  0  0  0  0
   13.0521    4.0998    0.0000 C    0  0  0  0  0  0  0  0  0  0  0  0
    1.4030    1.8446    0.0000 C    0  0  0  0  0  0  0  0  0  0  0  0
   13.0521    0.5893    0.0000 C    0  0  0  0  0  0  0  0  0  0  0  0
   14.0307    4.3060    0.0000 C    0  0  0  0  0  0  0  0  0  0  0  0
   12.3843    4.8441    0.0000 C    0  0  0  0  0  0  0  0  0  0  0  0
   14.3413    5.2566    0.0000 C    0  0  0  0  0  0  0  0  0  0  0  0
   12.6950    5.7946    0.0000 C    0  0  0  0  0  0  0  0  0  0  0  0
    0.5369    1.3446    0.0000 C    0  0  0  0  0  0  0  0  0  0  0  0
   13.6735    6.0009    0.0000 C    0  0  0  0  0  0  0  0  0  0  0  0
    7.0410    9.9501    0.0000 C    0  0  0  0  0  0  0  0  0  0  0  0
    7.9070   10.4501    0.0000 C    0  0  0  0  0  0  0  0  0  0  0  0
    6.1750   10.4501    0.0000 C    0  0  0  0  0  0  0  0  0  0  0  0
    8.7730    9.9501    0.0000 C    0  0  0  0  0  0  0  0  0  0  0  0
    5.3346    0.8696    0.0000 H    0  0  0  0  0  0  0  0  0  0  0  0
    6.1316    0.8696    0.0000 H    0  0  0  0  0  0  0  0  0  0  0  0
    6.9976    2.3195    0.0000 H    0  0  0  0  0  0  0  0  0  0  0  0
    6.2006    2.3195    0.0000 H    0  0  0  0  0  0  0  0  0  0  0  0
    5.2656    2.3195    0.0000 H    0  0  0  0  0  0  0  0  0  0  0  0
    4.4685    2.3195    0.0000 H    0  0  0  0  0  0  0  0  0  0  0  0
    7.0666    0.8696    0.0000 H    0  0  0  0  0  0  0  0  0  0  0  0
    7.8637    0.8696    0.0000 H    0  0  0  0  0  0  0  0  0  0  0  0
    3.6025    0.8696    0.0000 H    0  0  0  0  0  0  0  0  0  0  0  0
    4.3996    0.8696    0.0000 H    0  0  0  0  0  0  0  0  0  0  0  0
    8.7297    2.3195    0.0000 H    0  0  0  0  0  0  0  0  0  0  0  0
    7.9326    2.3195    0.0000 H    0  0  0  0  0  0  0  0  0  0  0  0
    1.8705    0.8696    0.0000 H    0  0  0  0  0  0  0  0  0  0  0  0
    2.6675    0.8696    0.0000 H    0  0  0  0  0  0  0  0  0  0  0  0
    3.7550    2.8446    0.0000 H    0  0  0  0  0  0  0  0  0  0  0  0
    3.1350    3.4646    0.0000 H    0  0  0  0  0  0  0  0  0  0  0  0
    2.5150    2.8446    0.0000 H    0  0  0  0  0  0  0  0  0  0  0  0
   10.9292    0.7246    0.0000 H    0  0  0  0  0  0  0  0  0  0  0  0
   10.9292    3.9646    0.0000 H    0  0  0  0  0  0  0  0  0  0  0  0
    9.5263    3.1546    0.0000 H    0  0  0  0  0  0  0  0  0  0  0  0
    1.4030    2.4646    0.0000 H    0  0  0  0  0  0  0  0  0  0  0  0
   12.4628    0.3967    0.0000 H    0  0  0  0  0  0  0  0  0  0  0  0
   13.2448    0.0000    0.0000 H    0  0  0  0  0  0  0  0  0  0  0  0
   13.6415    0.7819    0.0000 H    0  0  0  0  0  0  0  0  0  0  0  0
   14.4447    3.8446    0.0000 H    0  0  0  0  0  0  0  0  0  0  0  0
   11.7776    4.7163    0.0000 H    0  0  0  0  0  0  0  0  0  0  0  0
   14.9480    5.3844    0.0000 H    0  0  0  0  0  0  0  0  0  0  0  0
   12.2809    6.2561    0.0000 H    0  0  0  0  0  0  0  0  0  0  0  0
    0.0000    1.6546    0.0000 H    0  0  0  0  0  0  0  0  0  0  0  0
    0.5369    0.7246    0.0000 H    0  0  0  0  0  0  0  0  0  0  0  0
    7.0410    9.3301    0.0000 H    0  0  0  0  0  0  0  0  0  0  0  0
    7.9070   11.0701    0.0000 H    0  0  0  0  0  0  0  0  0  0  0  0
   10.1760   10.1401    0.0000 H    0  0  0  0  0  0  0  0  0  0  0  0
    4.7720   10.2601    0.0000 H    0  0  0  0  0  0  0  0  0  0  0  0
  1 33  1  0  0  0  0
  2 15  1  0  0  0  0
  2 19  1  0  0  0  0
  3 37  1  0  0  0  0
  3 70  1  0  0  0  0
  4 36  1  0  0  0  0
  4 71  1  0  0  0  0
  5 37  2  0  0  0  0
  6 36  2  0  0  0  0
  7 14  1  0  0  0  0
  7 16  1  0  0  0  0
  7 20  1  0  0  0  0
  8  9  1  0  0  0  0
  8 17  1  0  0  0  0
  8 27  1  0  0  0  0
  9 21  2  0  0  0  0
 10 11  1  0  0  0  0
 10 12  1  0  0  0  0
 10 38  1  0  0  0  0
 10 39  1  0  0  0  0
 11 13  1  0  0  0  0
 11 40  1  0  0  0  0
 11 41  1  0  0  0  0
 12 14  1  0  0  0  0
 12 42  1  0  0  0  0
 12 43  1  0  0  0  0
 13 15  1  0  0  0  0
 13 44  1  0  0  0  0
 13 45  1  0  0  0  0
 14 46  1  0  0  0  0
 14 47  1  0  0  0  0
 15 48  1  0  0  0  0
 15 49  1  0  0  0  0
 16 26  1  0  0  0  0
 16 50  1  0  0  0  0
 16 51  1  0  0  0  0
 17 18  2  0  0  0  0
 17 22  1  0  0  0  0
 18 21  1  0  0  0  0
 18 23  1  0  0  0  0
 19 22  2  0  0  0  0
 19 24  1  0  0  0  0
 20 52  1  0  0  0  0
 20 53  1  0  0  0  0
 20 54  1  0  0  0  0
 21 25  1  0  0  0  0
 22 55  1  0  0  0  0
 23 24  2  0  0  0  0
 23 56  1  0  0  0  0
 24 57  1  0  0  0  0
 25 28  2  0  0  0  0
 25 29  1  0  0  0  0
 26 32  2  0  0  0  0
 26 58  1  0  0  0  0
 27 59  1  0  0  0  0
 27 60  1  0  0  0  0
 27 61  1  0  0  0  0
 28 30  1  0  0  0  0
 28 62  1  0  0  0  0
 29 31  2  0  0  0  0
 29 63  1  0  0  0  0
 30 33  2  0  0  0  0
 30 64  1  0  0  0  0
 31 33  1  0  0  0  0
 31 65  1  0  0  0  0
 32 66  1  0  0  0  0
 32 67  1  0  0  0  0
 34 35  2  0  0  0  0
 34 36  1  0  0  0  0
 34 68  1  0  0  0  0
 35 37  1  0  0  0  0
 35 69  1  0  0  0  0
M  END
> <PUBCHEM_COMPOUND_CID>
44341784

> <PUBCHEM_COMPOUND_CANONICALIZED>
1

> <PUBCHEM_CACTVS_COMPLEXITY>
602

> <PUBCHEM_CACTVS_HBOND_ACCEPTOR>
7

> <PUBCHEM_CACTVS_HBOND_DONOR>
2

> <PUBCHEM_CACTVS_ROTATABLE_BOND>
13

> <PUBCHEM_CACTVS_SUBSKEYS>
AAADcfB7OAAAEAAAAAAAAAAAAAAAAWAAAAAwYAAAAAAAAFgB9AAAHgBICAABrAzhngYyzvMIBgCqAyTyTACSDAAhogQY2CA+bPgMJqLE8duGvCjmyBnI+5eQ0OMOIgAAAgACAABEAAAEAAQAAAAAAAAAAA==

> <PUBCHEM_IUPAC_OPENEYE_NAME>
N-allyl-6-[3-(4-bromophenyl)-1-methyl-indazol-6-yl]oxy-N-methyl-hexan-1-amine;fumaric acid

> <PUBCHEM_IUPAC_CAS_NAME>
6-[[3-(4-bromophenyl)-1-methyl-6-indazolyl]oxy]-N-methyl-N-prop-2-enyl-1-hexanamine;(E)-2-butenedioic acid

> <PUBCHEM_IUPAC_NAME>
6-[3-(4-bromophenyl)-1-methylindazol-6-yl]oxy-N-methyl-N-prop-2-enylhexan-1-amine;(E)-but-2-enedioic acid

> <PUBCHEM_IUPAC_SYSTEMATIC_NAME>
6-[3-(4-bromophenyl)-1-methyl-indazol-6-yl]oxy-N-methyl-N-prop-2-enyl-hexan-1-amine;(E)-but-2-enedioic acid

> <PUBCHEM_IUPAC_TRADITIONAL_NAME>
allyl-[6-[3-(4-bromophenyl)-1-methyl-indazol-6-yl]oxyhexyl]-methyl-amine;fumaric acid

> <PUBCHEM_IUPAC_INCHI>
InChI=1S/C24H30BrN3O.C4H4O4/c1-4-15-27(2)16-7-5-6-8-17-29-21-13-14-22-23(18-21)28(3)26-24(22)19-9-11-20(25)12-10-19;5-3(6)1-2-4(7)8/h4,9-14,18H,1,5-8,15-17H2,2-3H3;1-2H,(H,5,6)(H,7,8)/b;2-1+

> <PUBCHEM_IUPAC_INCHIKEY>
WKVCSBFSDHYNAG-WLHGVMLRSA-N

> <PUBCHEM_EXACT_MASS>
571.168183

> <PUBCHEM_MOLECULAR_FORMULA>
C28H34BrN3O5

> <PUBCHEM_MOLECULAR_WEIGHT>
572.49066

> <PUBCHEM_OPENEYE_CAN_SMILES>
CN1C2=C(C=CC(=C2)OCCCCCCN(C)CC=C)C(=N1)C3=CC=C(C=C3)Br.C(=CC(=O)O)C(=O)O

> <PUBCHEM_OPENEYE_ISO_SMILES>
CN1C2=C(C=CC(=C2)OCCCCCCN(C)CC=C)C(=N1)C3=CC=C(C=C3)Br.C(=C/C(=O)O)\C(=O)O

> <PUBCHEM_CACTVS_TPSA>
105

> <PUBCHEM_MONOISOTOPIC_WEIGHT>
571.168183

> <PUBCHEM_TOTAL_CHARGE>
0

> <PUBCHEM_HEAVY_ATOM_COUNT>
37

> <PUBCHEM_ATOM_DEF_STEREO_COUNT>
0

> <PUBCHEM_ATOM_UDEF_STEREO_COUNT>
0

> <PUBCHEM_BOND_DEF_STEREO_COUNT>
1

> <PUBCHEM_BOND_UDEF_STEREO_COUNT>
0

> <PUBCHEM_ISOTOPIC_ATOM_COUNT>
0

> <PUBCHEM_COMPONENT_COUNT>
2

> <PUBCHEM_CACTVS_TAUTO_COUNT>
1

> <PUBCHEM_COORDINATE_TYPE>
1 __ 5 __ 255

> <PUBCHEM_BONDANNOTATIONS>
17  18  8 __ 17  22  8 __ 18  21  8 __ 18  23  8 __ 19  22  8 __ 19  24  8 __ 23  24  8 __ 25  28  8 __ 25  29  8 __ 28  30  8 __ 29  31  8 __ 30  33  8 __ 31  33  8 __ 8  17  8 __ 8  9  8 __ 9  21  8 __ 

$$$$
