44418808
ChemmineR-0425141737XD

 43 45  0     0  0  0  0  0  0999 V2000
    2.0000   -1.0392    0.0000 Br   0  0  0  0  0  0  0  0  0  0  0  0
    6.8335    1.9223    0.0000 O    0  0  0  0  0  0  0  0  0  0  0  0
    7.5013   -1.2564    0.0000 O    0  0  0  0  0  0  0  0  0  0  0  0
    5.1871    2.4604    0.0000 O    0  0  0  0  0  0  0  0  0  0  0  0
    8.4333   -4.1079    0.0000 O    0  0  0  0  0  0  0  0  0  0  0  0
    5.5443    0.7656    0.0000 N    0  0  0  0  0  0  0  0  0  0  0  0
    8.1226   -3.1574    0.0000 N    0  0  0  0  0  0  0  0  0  0  0  0
    5.5443   -0.8439    0.0000 C    0  0  0  0  0  0  0  0  0  0  0  0
    4.5981   -0.5392    0.0000 C    0  0  0  0  0  0  0  0  0  0  0  0
    4.5981    0.4608    0.0000 C    0  0  0  0  0  0  0  0  0  0  0  0
    6.1279   -0.0392    0.0000 C    0  0  0  0  0  0  0  0  0  0  0  0
    5.8550   -1.7944    0.0000 C    0  0  0  0  0  0  0  0  0  0  0  0
    3.7320   -1.0392    0.0000 C    0  0  0  0  0  0  0  0  0  0  0  0
    3.7320    0.9608    0.0000 C    0  0  0  0  0  0  0  0  0  0  0  0
    6.8335   -2.0006    0.0000 C    0  0  0  0  0  0  0  0  0  0  0  0
    5.8550    1.7161    0.0000 C    0  0  0  0  0  0  0  0  0  0  0  0
    2.8660   -0.5392    0.0000 C    0  0  0  0  0  0  0  0  0  0  0  0
    2.8660    0.4608    0.0000 C    0  0  0  0  0  0  0  0  0  0  0  0
    7.1441   -2.9512    0.0000 C    0  0  0  0  0  0  0  0  0  0  0  0
    7.1441    2.8728    0.0000 C    0  0  0  0  0  0  0  0  0  0  0  0
    8.1226    3.0790    0.0000 C    0  0  0  0  0  0  0  0  0  0  0  0
    8.7905    2.3347    0.0000 C    0  0  0  0  0  0  0  0  0  0  0  0
    8.4333    4.0296    0.0000 C    0  0  0  0  0  0  0  0  0  0  0  0
    9.7690    2.5410    0.0000 C    0  0  0  0  0  0  0  0  0  0  0  0
    9.4118    4.2358    0.0000 C    0  0  0  0  0  0  0  0  0  0  0  0
   10.0796    3.4915    0.0000 C    0  0  0  0  0  0  0  0  0  0  0  0
    6.7479   -0.0392    0.0000 H    0  0  0  0  0  0  0  0  0  0  0  0
    5.2411   -1.8818    0.0000 H    0  0  0  0  0  0  0  0  0  0  0  0
    5.8344   -2.4141    0.0000 H    0  0  0  0  0  0  0  0  0  0  0  0
    3.7320   -1.6592    0.0000 H    0  0  0  0  0  0  0  0  0  0  0  0
    3.7320    1.5808    0.0000 H    0  0  0  0  0  0  0  0  0  0  0  0
    2.3291    0.7708    0.0000 H    0  0  0  0  0  0  0  0  0  0  0  0
    6.5303   -3.0385    0.0000 H    0  0  0  0  0  0  0  0  0  0  0  0
    7.1236   -3.5708    0.0000 H    0  0  0  0  0  0  0  0  0  0  0  0
    7.1236    3.4925    0.0000 H    0  0  0  0  0  0  0  0  0  0  0  0
    6.5303    2.9602    0.0000 H    0  0  0  0  0  0  0  0  0  0  0  0
    8.5367   -2.6959    0.0000 H    0  0  0  0  0  0  0  0  0  0  0  0
    8.5979    1.7454    0.0000 H    0  0  0  0  0  0  0  0  0  0  0  0
    8.0192    4.4910    0.0000 H    0  0  0  0  0  0  0  0  0  0  0  0
   10.1830    2.0795    0.0000 H    0  0  0  0  0  0  0  0  0  0  0  0
    9.6044    4.8251    0.0000 H    0  0  0  0  0  0  0  0  0  0  0  0
   10.6863    3.6193    0.0000 H    0  0  0  0  0  0  0  0  0  0  0  0
    9.0400   -4.2358    0.0000 H    0  0  0  0  0  0  0  0  0  0  0  0
  1 17  1  0  0  0  0
  2 16  1  0  0  0  0
  2 20  1  0  0  0  0
  3 15  2  0  0  0  0
  4 16  2  0  0  0  0
  5  7  1  0  0  0  0
  5 43  1  0  0  0  0
  6 10  1  0  0  0  0
  6 11  1  0  0  0  0
  6 16  1  0  0  0  0
  7 19  1  0  0  0  0
  7 37  1  0  0  0  0
  8  9  1  0  0  0  0
  8 11  2  0  0  0  0
  8 12  1  0  0  0  0
  9 10  2  0  0  0  0
  9 13  1  0  0  0  0
 10 14  1  0  0  0  0
 11 27  1  0  0  0  0
 12 15  1  0  0  0  0
 12 28  1  0  0  0  0
 12 29  1  0  0  0  0
 13 17  2  0  0  0  0
 13 30  1  0  0  0  0
 14 18  2  0  0  0  0
 14 31  1  0  0  0  0
 15 19  1  0  0  0  0
 17 18  1  0  0  0  0
 18 32  1  0  0  0  0
 19 33  1  0  0  0  0
 19 34  1  0  0  0  0
 20 21  1  0  0  0  0
 20 35  1  0  0  0  0
 20 36  1  0  0  0  0
 21 22  2  0  0  0  0
 21 23  1  0  0  0  0
 22 24  1  0  0  0  0
 22 38  1  0  0  0  0
 23 25  2  0  0  0  0
 23 39  1  0  0  0  0
 24 26  2  0  0  0  0
 24 40  1  0  0  0  0
 25 26  1  0  0  0  0
 25 41  1  0  0  0  0
 26 42  1  0  0  0  0
M  END
> <PUBCHEM_COMPOUND_CID>
44418808

> <PUBCHEM_COMPOUND_CANONICALIZED>
1

> <PUBCHEM_CACTVS_COMPLEXITY>
498

> <PUBCHEM_CACTVS_HBOND_ACCEPTOR>
5

> <PUBCHEM_CACTVS_HBOND_DONOR>
2

> <PUBCHEM_CACTVS_ROTATABLE_BOND>
7

> <PUBCHEM_CACTVS_SUBSKEYS>
AAADceB7OAAAEAAAAAAAAAAAAAAAAWAAAAAwYAAAAAAAAFgB9AAAHgBUCAABrAzhngY8yPNcFACoA7R3XACCgCAxAiQo2KG4bLgIJvLAtZmMMAhkxgHI6hecyeCegAAgEAACAAAAAEAgAAQAAAAAAAAAAA==

> <PUBCHEM_IUPAC_OPENEYE_NAME>
benzyl 5-bromo-3-[3-(hydroxyamino)-2-oxo-propyl]indole-1-carboxylate

> <PUBCHEM_IUPAC_CAS_NAME>
5-bromo-3-[3-(hydroxyamino)-2-oxopropyl]-1-indolecarboxylic acid (phenylmethyl) ester

> <PUBCHEM_IUPAC_NAME>
benzyl 5-bromo-3-[3-(hydroxyamino)-2-oxopropyl]indole-1-carboxylate

> <PUBCHEM_IUPAC_SYSTEMATIC_NAME>
(phenylmethyl) 5-bromanyl-3-[3-(oxidanylamino)-2-oxidanylidene-propyl]indole-1-carboxylate

> <PUBCHEM_IUPAC_TRADITIONAL_NAME>
5-bromo-3-[3-(hydroxyamino)-2-keto-propyl]indole-1-carboxylic acid benzyl ester

> <PUBCHEM_IUPAC_INCHI>
InChI=1S/C19H17BrN2O4/c20-15-6-7-18-17(9-15)14(8-16(23)10-21-25)11-22(18)19(24)26-12-13-4-2-1-3-5-13/h1-7,9,11,21,25H,8,10,12H2

> <PUBCHEM_IUPAC_INCHIKEY>
CAIPZMOYYGITFD-UHFFFAOYSA-N

> <PUBCHEM_XLOGP3_AA>
3.2

> <PUBCHEM_EXACT_MASS>
416.037169

> <PUBCHEM_MOLECULAR_FORMULA>
C19H17BrN2O4

> <PUBCHEM_MOLECULAR_WEIGHT>
417.25328

> <PUBCHEM_OPENEYE_CAN_SMILES>
C1=CC=C(C=C1)COC(=O)N2C=C(C3=C2C=CC(=C3)Br)CC(=O)CNO

> <PUBCHEM_OPENEYE_ISO_SMILES>
C1=CC=C(C=C1)COC(=O)N2C=C(C3=C2C=CC(=C3)Br)CC(=O)CNO

> <PUBCHEM_CACTVS_TPSA>
80.6

> <PUBCHEM_MONOISOTOPIC_WEIGHT>
416.037169

> <PUBCHEM_TOTAL_CHARGE>
0

> <PUBCHEM_HEAVY_ATOM_COUNT>
26

> <PUBCHEM_ATOM_DEF_STEREO_COUNT>
0

> <PUBCHEM_ATOM_UDEF_STEREO_COUNT>
0

> <PUBCHEM_BOND_DEF_STEREO_COUNT>
0

> <PUBCHEM_BOND_UDEF_STEREO_COUNT>
0

> <PUBCHEM_ISOTOPIC_ATOM_COUNT>
0

> <PUBCHEM_COMPONENT_COUNT>
1

> <PUBCHEM_CACTVS_TAUTO_COUNT>
5

> <PUBCHEM_COORDINATE_TYPE>
1 __ 5 __ 255

> <PUBCHEM_BONDANNOTATIONS>
10  14  8 __ 13  17  8 __ 14  18  8 __ 17  18  8 __ 21  22  8 __ 21  23  8 __ 22  24  8 __ 23  25  8 __ 24  26  8 __ 25  26  8 __ 6  10  8 __ 6  11  8 __ 8  11  8 __ 8  9  8 __ 9  10  8 __ 9  13  8 __ 

$$$$
