44450914
ChemmineR-0425141737XD

 42 43  0     1  0  0  0  0  0999 V2000
    2.8660   -3.5194    0.0000 Cl   0  0  0  0  0  0  0  0  0  0  0  0
    4.5981   -0.5194    0.0000 O    0  0  0  0  0  0  0  0  0  0  0  0
    3.7320    1.9806    0.0000 N    0  0  0  0  0  0  0  0  0  0  0  0
    3.2320    3.5194    0.0000 N    0  0  0  0  0  0  0  0  0  0  0  0
    5.4641    0.9806    0.0000 C    0  0  0  0  0  0  0  0  0  0  0  0
    4.5981    0.4806    0.0000 C    0  0  1  0  0  0  0  0  0  0  0  0
    6.3301    1.4806    0.0000 C    0  0  0  0  0  0  0  0  0  0  0  0
    5.9641    0.1146    0.0000 C    0  0  0  0  0  0  0  0  0  0  0  0
    4.9641    1.8466    0.0000 C    0  0  0  0  0  0  0  0  0  0  0  0
    3.7320    0.9806    0.0000 C    0  0  0  0  0  0  0  0  0  0  0  0
    2.8660    0.4806    0.0000 C    0  0  0  0  0  0  0  0  0  0  0  0
    5.4641   -1.0194    0.0000 C    0  0  0  0  0  0  0  0  0  0  0  0
    2.8660   -0.5194    0.0000 C    0  0  0  0  0  0  0  0  0  0  0  0
    4.5411    2.5684    0.0000 C    0  0  0  0  0  0  0  0  0  0  0  0
    2.9230    2.5684    0.0000 C    0  0  0  0  0  0  0  0  0  0  0  0
    4.2320    3.5194    0.0000 C    0  0  0  0  0  0  0  0  0  0  0  0
    2.0000   -1.0194    0.0000 C    0  0  0  0  0  0  0  0  0  0  0  0
    3.7320   -1.0194    0.0000 C    0  0  0  0  0  0  0  0  0  0  0  0
    2.0000   -2.0194    0.0000 C    0  0  0  0  0  0  0  0  0  0  0  0
    3.7320   -2.0194    0.0000 C    0  0  0  0  0  0  0  0  0  0  0  0
    2.8660   -2.5194    0.0000 C    0  0  0  0  0  0  0  0  0  0  0  0
    5.1350    0.1706    0.0000 H    0  0  0  0  0  0  0  0  0  0  0  0
    6.6401    0.9436    0.0000 H    0  0  0  0  0  0  0  0  0  0  0  0
    5.5010    2.1566    0.0000 H    0  0  0  0  0  0  0  0  0  0  0  0
    4.6541    2.3835    0.0000 H    0  0  0  0  0  0  0  0  0  0  0  0
    4.4272    1.5366    0.0000 H    0  0  0  0  0  0  0  0  0  0  0  0
    5.4272   -0.1954    0.0000 H    0  0  0  0  0  0  0  0  0  0  0  0
    6.2741   -0.4224    0.0000 H    0  0  0  0  0  0  0  0  0  0  0  0
    6.5010    0.4246    0.0000 H    0  0  0  0  0  0  0  0  0  0  0  0
    6.8671    1.7906    0.0000 H    0  0  0  0  0  0  0  0  0  0  0  0
    6.0201    2.0175    0.0000 H    0  0  0  0  0  0  0  0  0  0  0  0
    2.3291    0.7906    0.0000 H    0  0  0  0  0  0  0  0  0  0  0  0
    5.1541   -1.5564    0.0000 H    0  0  0  0  0  0  0  0  0  0  0  0
    6.0010   -1.3294    0.0000 H    0  0  0  0  0  0  0  0  0  0  0  0
    5.7741   -0.4825    0.0000 H    0  0  0  0  0  0  0  0  0  0  0  0
    5.1307    2.3768    0.0000 H    0  0  0  0  0  0  0  0  0  0  0  0
    2.3334    2.3768    0.0000 H    0  0  0  0  0  0  0  0  0  0  0  0
    4.5965    4.0210    0.0000 H    0  0  0  0  0  0  0  0  0  0  0  0
    1.4631   -0.7094    0.0000 H    0  0  0  0  0  0  0  0  0  0  0  0
    4.2690   -0.7094    0.0000 H    0  0  0  0  0  0  0  0  0  0  0  0
    1.4631   -2.3294    0.0000 H    0  0  0  0  0  0  0  0  0  0  0  0
    4.2690   -2.3294    0.0000 H    0  0  0  0  0  0  0  0  0  0  0  0
  1 21  1  0  0  0  0
  6  2  1  6  0  0  0
  2 12  1  0  0  0  0
  3 10  1  0  0  0  0
  3 14  1  0  0  0  0
  3 15  1  0  0  0  0
  4 15  2  0  0  0  0
  4 16  1  0  0  0  0
  5  6  1  0  0  0  0
  5  7  1  0  0  0  0
  5  8  1  0  0  0  0
  5  9  1  0  0  0  0
  6 10  1  0  0  0  0
  6 22  1  0  0  0  0
  7 23  1  0  0  0  0
  7 30  1  0  0  0  0
  7 31  1  0  0  0  0
  8 27  1  0  0  0  0
  8 28  1  0  0  0  0
  8 29  1  0  0  0  0
  9 24  1  0  0  0  0
  9 25  1  0  0  0  0
  9 26  1  0  0  0  0
 10 11  2  0  0  0  0
 11 13  1  0  0  0  0
 11 32  1  0  0  0  0
 12 33  1  0  0  0  0
 12 34  1  0  0  0  0
 12 35  1  0  0  0  0
 13 17  2  0  0  0  0
 13 18  1  0  0  0  0
 14 16  2  0  0  0  0
 14 36  1  0  0  0  0
 15 37  1  0  0  0  0
 16 38  1  0  0  0  0
 17 19  1  0  0  0  0
 17 39  1  0  0  0  0
 18 20  2  0  0  0  0
 18 40  1  0  0  0  0
 19 21  2  0  0  0  0
 19 41  1  0  0  0  0
 20 21  1  0  0  0  0
 20 42  1  0  0  0  0
M  END
> <PUBCHEM_COMPOUND_CID>
44450914

> <PUBCHEM_COMPOUND_CANONICALIZED>
1

> <PUBCHEM_CACTVS_COMPLEXITY>
356

> <PUBCHEM_CACTVS_HBOND_ACCEPTOR>
2

> <PUBCHEM_CACTVS_HBOND_DONOR>
0

> <PUBCHEM_CACTVS_ROTATABLE_BOND>
5

> <PUBCHEM_CACTVS_SUBSKEYS>
AAADceB7IAAEAAAAAAAAAAAAAAAAAWAAAAAwAAAAAAAAAAABwAAAHgIAAAAADh7hmiY/kJcMFACgAjRnZAACgC0xF6AJyAAYMoiKbCKBuxCVMAAogAKYqCcAgAAPBAAAAAAAAAAIAAAAAAAAAAAAAAAAAA==

> <PUBCHEM_IUPAC_OPENEYE_NAME>
1-[(1E,2S)-1-[(4-chlorophenyl)methylene]-2-methoxy-3,3-dimethyl-butyl]imidazole

> <PUBCHEM_IUPAC_CAS_NAME>
1-[(E,3S)-1-(4-chlorophenyl)-3-methoxy-4,4-dimethylpent-1-en-2-yl]imidazole

> <PUBCHEM_IUPAC_NAME>
1-[(E,3S)-1-(4-chlorophenyl)-3-methoxy-4,4-dimethylpent-1-en-2-yl]imidazole

> <PUBCHEM_IUPAC_SYSTEMATIC_NAME>
1-[(E,3S)-1-(4-chlorophenyl)-3-methoxy-4,4-dimethyl-pent-1-en-2-yl]imidazole

> <PUBCHEM_IUPAC_TRADITIONAL_NAME>
1-[(E)-2-(4-chlorophenyl)-1-[(1S)-1-methoxy-2,2-dimethyl-propyl]vinyl]imidazole

> <PUBCHEM_IUPAC_INCHI>
InChI=1S/C17H21ClN2O/c1-17(2,3)16(21-4)15(20-10-9-19-12-20)11-13-5-7-14(18)8-6-13/h5-12,16H,1-4H3/b15-11+/t16-/m1/s1

> <PUBCHEM_IUPAC_INCHIKEY>
GSXSRKAMRCFXRQ-RBFDBLARSA-N

> <PUBCHEM_XLOGP3_AA>
4.1

> <PUBCHEM_EXACT_MASS>
304.134241

> <PUBCHEM_MOLECULAR_FORMULA>
C17H21ClN2O

> <PUBCHEM_MOLECULAR_WEIGHT>
304.81444

> <PUBCHEM_OPENEYE_CAN_SMILES>
CC(C)(C)C(C(=CC1=CC=C(C=C1)Cl)N2C=CN=C2)OC

> <PUBCHEM_OPENEYE_ISO_SMILES>
CC(C)(C)[C@@H](/C(=C\C1=CC=C(C=C1)Cl)/N2C=CN=C2)OC

> <PUBCHEM_CACTVS_TPSA>
27

> <PUBCHEM_MONOISOTOPIC_WEIGHT>
304.134241

> <PUBCHEM_TOTAL_CHARGE>
0

> <PUBCHEM_HEAVY_ATOM_COUNT>
21

> <PUBCHEM_ATOM_DEF_STEREO_COUNT>
1

> <PUBCHEM_ATOM_UDEF_STEREO_COUNT>
0

> <PUBCHEM_BOND_DEF_STEREO_COUNT>
1

> <PUBCHEM_BOND_UDEF_STEREO_COUNT>
0

> <PUBCHEM_ISOTOPIC_ATOM_COUNT>
0

> <PUBCHEM_COMPONENT_COUNT>
1

> <PUBCHEM_CACTVS_TAUTO_COUNT>
1

> <PUBCHEM_COORDINATE_TYPE>
1 __ 5 __ 255

> <PUBCHEM_BONDANNOTATIONS>
13  17  8 __ 13  18  8 __ 14  16  8 __ 17  19  8 __ 18  20  8 __ 19  21  8 __ 6  2  6 __ 20  21  8 __ 3  14  8 __ 3  15  8 __ 4  15  8 __ 4  16  8 __ 

$$$$
