44570900
ChemmineR-0425141737XD

 49 50  0     1  0  0  0  0  0999 V2000
   10.4651   11.9766    0.0000 Br   0  0  0  0  0  0  0  0  0  0  0  0
    0.0000    6.0483    0.0000 Cl   0  0  0  0  0  0  0  0  0  0  0  0
    7.0010    5.9766    0.0000 O    0  0  0  0  0  0  0  0  0  0  0  0
    6.1350   10.4766    0.0000 O    0  0  0  0  0  0  0  0  0  0  0  0
    4.4030    2.4766    0.0000 N    0  0  3  0  0  0  0  0  0  0  0  0
    4.4030    1.4766    0.0000 C    0  0  0  0  0  0  0  0  0  0  0  0
    3.9030    0.6106    0.0000 C    0  0  0  0  0  0  0  0  0  0  0  0
    4.9030    0.6106    0.0000 C    0  0  0  0  0  0  0  0  0  0  0  0
    5.2690    2.9766    0.0000 C    0  0  0  0  0  0  0  0  0  0  0  0
    3.5369    2.9766    0.0000 C    0  0  0  0  0  0  0  0  0  0  0  0
    5.2690    3.9766    0.0000 C    0  0  0  0  0  0  0  0  0  0  0  0
    6.1350    4.4766    0.0000 C    0  0  0  0  0  0  0  0  0  0  0  0
    6.1350    5.4766    0.0000 C    0  0  0  0  0  0  0  0  0  0  0  0
    7.0010    6.9766    0.0000 C    0  0  0  0  0  0  0  0  0  0  0  0
    7.0010    8.9766    0.0000 C    0  0  0  0  0  0  0  0  0  0  0  0
    7.8671    7.4766    0.0000 C    0  0  0  0  0  0  0  0  0  0  0  0
    6.1350    7.4766    0.0000 C    0  0  0  0  0  0  0  0  0  0  0  0
    7.8671    8.4766    0.0000 C    0  0  0  0  0  0  0  0  0  0  0  0
    6.1350    8.4766    0.0000 C    0  0  0  0  0  0  0  0  0  0  0  0
    7.0010    9.9766    0.0000 C    0  0  0  0  0  0  0  0  0  0  0  0
    7.8671   10.4766    0.0000 C    0  0  0  0  0  0  0  0  0  0  0  0
    8.7331    9.9766    0.0000 C    0  0  0  0  0  0  0  0  0  0  0  0
    7.8671   11.4766    0.0000 C    0  0  0  0  0  0  0  0  0  0  0  0
    9.5991   10.4766    0.0000 C    0  0  0  0  0  0  0  0  0  0  0  0
    8.7331   11.9766    0.0000 C    0  0  0  0  0  0  0  0  0  0  0  0
    9.5991   11.4766    0.0000 C    0  0  0  0  0  0  0  0  0  0  0  0
    5.0018    1.6371    0.0000 H    0  0  0  0  0  0  0  0  0  0  0  0
    5.0106    0.0000    0.0000 H    0  0  0  0  0  0  0  0  0  0  0  0
    5.4856    0.8226    0.0000 H    0  0  0  0  0  0  0  0  0  0  0  0
    3.3204    0.8226    0.0000 H    0  0  0  0  0  0  0  0  0  0  0  0
    3.7953    0.0000    0.0000 H    0  0  0  0  0  0  0  0  0  0  0  0
    5.4810    2.3940    0.0000 H    0  0  0  0  0  0  0  0  0  0  0  0
    5.8796    3.0843    0.0000 H    0  0  0  0  0  0  0  0  0  0  0  0
    3.8469    3.5135    0.0000 H    0  0  0  0  0  0  0  0  0  0  0  0
    3.0000    3.2866    0.0000 H    0  0  0  0  0  0  0  0  0  0  0  0
    3.2269    2.4397    0.0000 H    0  0  0  0  0  0  0  0  0  0  0  0
    4.7320    4.2866    0.0000 H    0  0  0  0  0  0  0  0  0  0  0  0
    6.6720    4.1666    0.0000 H    0  0  0  0  0  0  0  0  0  0  0  0
    5.9230    6.0592    0.0000 H    0  0  0  0  0  0  0  0  0  0  0  0
    5.5244    5.3689    0.0000 H    0  0  0  0  0  0  0  0  0  0  0  0
    8.4040    7.1666    0.0000 H    0  0  0  0  0  0  0  0  0  0  0  0
    5.5981    7.1666    0.0000 H    0  0  0  0  0  0  0  0  0  0  0  0
    8.4040    8.7866    0.0000 H    0  0  0  0  0  0  0  0  0  0  0  0
    5.5981    8.7866    0.0000 H    0  0  0  0  0  0  0  0  0  0  0  0
    8.7331    9.3566    0.0000 H    0  0  0  0  0  0  0  0  0  0  0  0
    7.3301   11.7866    0.0000 H    0  0  0  0  0  0  0  0  0  0  0  0
   10.1360   10.1666    0.0000 H    0  0  0  0  0  0  0  0  0  0  0  0
    8.7331   12.5966    0.0000 H    0  0  0  0  0  0  0  0  0  0  0  0
    1.0000    6.0483    0.0000 H    0  0  0  0  0  0  0  0  0  0  0  0
  1 26  1  0  0  0  0
  2 49  1  0  0  0  0
  3 13  1  0  0  0  0
  3 14  1  0  0  0  0
  4 20  2  0  0  0  0
  5  6  1  0  0  0  0
  5  9  1  0  0  0  0
  5 10  1  0  0  0  0
  6  7  1  0  0  0  0
  6  8  1  0  0  0  0
  6 27  1  0  0  0  0
  7  8  1  0  0  0  0
  7 30  1  0  0  0  0
  7 31  1  0  0  0  0
  8 28  1  0  0  0  0
  8 29  1  0  0  0  0
  9 11  1  0  0  0  0
  9 32  1  0  0  0  0
  9 33  1  0  0  0  0
 10 34  1  0  0  0  0
 10 35  1  0  0  0  0
 10 36  1  0  0  0  0
 11 12  2  0  0  0  0
 11 37  1  0  0  0  0
 12 13  1  0  0  0  0
 12 38  1  0  0  0  0
 13 39  1  0  0  0  0
 13 40  1  0  0  0  0
 14 16  2  0  0  0  0
 14 17  1  0  0  0  0
 15 18  2  0  0  0  0
 15 19  1  0  0  0  0
 15 20  1  0  0  0  0
 16 18  1  0  0  0  0
 16 41  1  0  0  0  0
 17 19  2  0  0  0  0
 17 42  1  0  0  0  0
 18 43  1  0  0  0  0
 19 44  1  0  0  0  0
 20 21  1  0  0  0  0
 21 22  2  0  0  0  0
 21 23  1  0  0  0  0
 22 24  1  0  0  0  0
 22 45  1  0  0  0  0
 23 25  2  0  0  0  0
 23 46  1  0  0  0  0
 24 26  2  0  0  0  0
 24 47  1  0  0  0  0
 25 26  1  0  0  0  0
 25 48  1  0  0  0  0
M  END
> <PUBCHEM_COMPOUND_CID>
44570900

> <PUBCHEM_COMPOUND_CANONICALIZED>
1

> <PUBCHEM_CACTVS_COMPLEXITY>
447

> <PUBCHEM_CACTVS_HBOND_ACCEPTOR>
3

> <PUBCHEM_CACTVS_HBOND_DONOR>
1

> <PUBCHEM_CACTVS_ROTATABLE_BOND>
8

> <PUBCHEM_CACTVS_SUBSKEYS>
AAADceB6MAAEEAAAAAAAAAAAGAAAAAAAAAAwYAAAAAAAAAABQAAAHgBAAAABrCzhmAYyBoMABACIAqBSAACCCAAkIAQIiAEOCOgMJjKENRqGOSCkwBGIq5eIzODOIgAAAAAAAABEAAAAAAAAAAAAAAAAAA==

> <PUBCHEM_IUPAC_OPENEYE_NAME>
(4-bromophenyl)-[4-[(E)-4-[cyclopropyl(methyl)amino]but-2-enoxy]phenyl]methanone;hydrochloride

> <PUBCHEM_IUPAC_CAS_NAME>
(4-bromophenyl)-[4-[(E)-4-[cyclopropyl(methyl)amino]but-2-enoxy]phenyl]methanone;hydrochloride

> <PUBCHEM_IUPAC_NAME>
(4-bromophenyl)-[4-[(E)-4-[cyclopropyl(methyl)amino]but-2-enoxy]phenyl]methanone;hydrochloride

> <PUBCHEM_IUPAC_SYSTEMATIC_NAME>
(4-bromophenyl)-[4-[(E)-4-[cyclopropyl(methyl)amino]but-2-enoxy]phenyl]methanone;hydrochloride

> <PUBCHEM_IUPAC_TRADITIONAL_NAME>
(4-bromophenyl)-[4-[(E)-4-[cyclopropyl(methyl)amino]but-2-enoxy]phenyl]methanone;hydrochloride

> <PUBCHEM_IUPAC_INCHI>
InChI=1S/C21H22BrNO2.ClH/c1-23(19-10-11-19)14-2-3-15-25-20-12-6-17(7-13-20)21(24)16-4-8-18(22)9-5-16;/h2-9,12-13,19H,10-11,14-15H2,1H3;1H/b3-2+;

> <PUBCHEM_IUPAC_INCHIKEY>
XZKLJJKDFBZTRH-SQQVDAMQSA-N

> <PUBCHEM_EXACT_MASS>
435.060069

> <PUBCHEM_MOLECULAR_FORMULA>
C21H23BrClNO2

> <PUBCHEM_MOLECULAR_WEIGHT>
436.76982

> <PUBCHEM_OPENEYE_CAN_SMILES>
CN(CC=CCOC1=CC=C(C=C1)C(=O)C2=CC=C(C=C2)Br)C3CC3.Cl

> <PUBCHEM_OPENEYE_ISO_SMILES>
CN(C/C=C/COC1=CC=C(C=C1)C(=O)C2=CC=C(C=C2)Br)C3CC3.Cl

> <PUBCHEM_CACTVS_TPSA>
29.5

> <PUBCHEM_MONOISOTOPIC_WEIGHT>
435.060069

> <PUBCHEM_TOTAL_CHARGE>
0

> <PUBCHEM_HEAVY_ATOM_COUNT>
26

> <PUBCHEM_ATOM_DEF_STEREO_COUNT>
0

> <PUBCHEM_ATOM_UDEF_STEREO_COUNT>
0

> <PUBCHEM_BOND_DEF_STEREO_COUNT>
1

> <PUBCHEM_BOND_UDEF_STEREO_COUNT>
0

> <PUBCHEM_ISOTOPIC_ATOM_COUNT>
0

> <PUBCHEM_COMPONENT_COUNT>
2

> <PUBCHEM_CACTVS_TAUTO_COUNT>
1

> <PUBCHEM_COORDINATE_TYPE>
1 __ 5 __ 255

> <PUBCHEM_BONDANNOTATIONS>
14  16  8 __ 14  17  8 __ 15  18  8 __ 15  19  8 __ 16  18  8 __ 17  19  8 __ 21  22  8 __ 21  23  8 __ 22  24  8 __ 23  25  8 __ 24  26  8 __ 25  26  8 __ 

$$$$
