44570860
ChemmineR-0425141737XD

 51 52  0     1  0  0  0  0  0999 V2000
    8.7331   12.3100    0.0000 Br   0  0  0  0  0  0  0  0  0  0  0  0
    0.0000    6.2150    0.0000 Cl   0  0  0  0  0  0  0  0  0  0  0  0
    4.4030   10.8100    0.0000 O    0  0  0  0  0  0  0  0  0  0  0  0
    4.4030    2.8100    0.0000 N    0  0  3  0  0  0  0  0  0  0  0  0
    5.2690    3.3100    0.0000 C    0  0  0  0  0  0  0  0  0  0  0  0
    5.2690    4.3100    0.0000 C    0  0  0  0  0  0  0  0  0  0  0  0
    5.2690    6.3100    0.0000 C    0  0  0  0  0  0  0  0  0  0  0  0
    5.2690    7.3100    0.0000 C    0  0  0  0  0  0  0  0  0  0  0  0
    6.1350    4.8100    0.0000 C    0  0  0  0  0  0  0  0  0  0  0  0
    4.4030    4.8100    0.0000 C    0  0  0  0  0  0  0  0  0  0  0  0
    6.1350    5.8100    0.0000 C    0  0  0  0  0  0  0  0  0  0  0  0
    4.4030    5.8100    0.0000 C    0  0  0  0  0  0  0  0  0  0  0  0
    4.4030    1.8100    0.0000 C    0  0  0  0  0  0  0  0  0  0  0  0
    3.5369    3.3100    0.0000 C    0  0  0  0  0  0  0  0  0  0  0  0
    6.1350    7.8100    0.0000 C    0  0  0  0  0  0  0  0  0  0  0  0
    4.4030    7.8100    0.0000 C    0  0  0  0  0  0  0  0  0  0  0  0
    5.2690    9.3100    0.0000 C    0  0  0  0  0  0  0  0  0  0  0  0
    6.1350    8.8100    0.0000 C    0  0  0  0  0  0  0  0  0  0  0  0
    4.4030    8.8100    0.0000 C    0  0  0  0  0  0  0  0  0  0  0  0
    5.2690   10.3100    0.0000 C    0  0  0  0  0  0  0  0  0  0  0  0
    3.5369    1.3100    0.0000 C    0  0  0  0  0  0  0  0  0  0  0  0
    6.1350   10.8100    0.0000 C    0  0  0  0  0  0  0  0  0  0  0  0
    7.0010   10.3100    0.0000 C    0  0  0  0  0  0  0  0  0  0  0  0
    6.1350   11.8100    0.0000 C    0  0  0  0  0  0  0  0  0  0  0  0
    3.5369    0.3100    0.0000 C    0  0  0  0  0  0  0  0  0  0  0  0
    7.8671   10.8100    0.0000 C    0  0  0  0  0  0  0  0  0  0  0  0
    7.0010   12.3100    0.0000 C    0  0  0  0  0  0  0  0  0  0  0  0
    7.8671   11.8100    0.0000 C    0  0  0  0  0  0  0  0  0  0  0  0
    5.4810    2.7274    0.0000 H    0  0  0  0  0  0  0  0  0  0  0  0
    5.8796    3.4177    0.0000 H    0  0  0  0  0  0  0  0  0  0  0  0
    6.6720    4.5000    0.0000 H    0  0  0  0  0  0  0  0  0  0  0  0
    3.8660    4.5000    0.0000 H    0  0  0  0  0  0  0  0  0  0  0  0
    6.6720    6.1200    0.0000 H    0  0  0  0  0  0  0  0  0  0  0  0
    3.8660    6.1200    0.0000 H    0  0  0  0  0  0  0  0  0  0  0  0
    4.6150    1.2274    0.0000 H    0  0  0  0  0  0  0  0  0  0  0  0
    5.0135    1.9177    0.0000 H    0  0  0  0  0  0  0  0  0  0  0  0
    3.8469    3.8469    0.0000 H    0  0  0  0  0  0  0  0  0  0  0  0
    3.0000    3.6200    0.0000 H    0  0  0  0  0  0  0  0  0  0  0  0
    3.2269    2.7731    0.0000 H    0  0  0  0  0  0  0  0  0  0  0  0
    6.6720    7.5000    0.0000 H    0  0  0  0  0  0  0  0  0  0  0  0
    3.8660    7.5000    0.0000 H    0  0  0  0  0  0  0  0  0  0  0  0
    6.6720    9.1200    0.0000 H    0  0  0  0  0  0  0  0  0  0  0  0
    3.8660    9.1200    0.0000 H    0  0  0  0  0  0  0  0  0  0  0  0
    3.0000    1.6200    0.0000 H    0  0  0  0  0  0  0  0  0  0  0  0
    7.0010    9.6900    0.0000 H    0  0  0  0  0  0  0  0  0  0  0  0
    5.5981   12.1200    0.0000 H    0  0  0  0  0  0  0  0  0  0  0  0
    3.0000    0.0000    0.0000 H    0  0  0  0  0  0  0  0  0  0  0  0
    4.0739    0.0000    0.0000 H    0  0  0  0  0  0  0  0  0  0  0  0
    8.4040   10.5000    0.0000 H    0  0  0  0  0  0  0  0  0  0  0  0
    7.0010   12.9300    0.0000 H    0  0  0  0  0  0  0  0  0  0  0  0
    1.0000    6.2150    0.0000 H    0  0  0  0  0  0  0  0  0  0  0  0
  1 28  1  0  0  0  0
  2 51  1  0  0  0  0
  3 20  2  0  0  0  0
  4  5  1  0  0  0  0
  4 13  1  0  0  0  0
  4 14  1  0  0  0  0
  5  6  1  0  0  0  0
  5 29  1  0  0  0  0
  5 30  1  0  0  0  0
  6  9  2  0  0  0  0
  6 10  1  0  0  0  0
  7  8  1  0  0  0  0
  7 11  2  0  0  0  0
  7 12  1  0  0  0  0
  8 15  2  0  0  0  0
  8 16  1  0  0  0  0
  9 11  1  0  0  0  0
  9 31  1  0  0  0  0
 10 12  2  0  0  0  0
 10 32  1  0  0  0  0
 11 33  1  0  0  0  0
 12 34  1  0  0  0  0
 13 21  1  0  0  0  0
 13 35  1  0  0  0  0
 13 36  1  0  0  0  0
 14 37  1  0  0  0  0
 14 38  1  0  0  0  0
 14 39  1  0  0  0  0
 15 18  1  0  0  0  0
 15 40  1  0  0  0  0
 16 19  2  0  0  0  0
 16 41  1  0  0  0  0
 17 18  2  0  0  0  0
 17 19  1  0  0  0  0
 17 20  1  0  0  0  0
 18 42  1  0  0  0  0
 19 43  1  0  0  0  0
 20 22  1  0  0  0  0
 21 25  2  0  0  0  0
 21 44  1  0  0  0  0
 22 23  2  0  0  0  0
 22 24  1  0  0  0  0
 23 26  1  0  0  0  0
 23 45  1  0  0  0  0
 24 27  2  0  0  0  0
 24 46  1  0  0  0  0
 25 47  1  0  0  0  0
 25 48  1  0  0  0  0
 26 28  2  0  0  0  0
 26 49  1  0  0  0  0
 27 28  1  0  0  0  0
 27 50  1  0  0  0  0
M  END
> <PUBCHEM_COMPOUND_CID>
44570860

> <PUBCHEM_COMPOUND_CANONICALIZED>
1

> <PUBCHEM_CACTVS_COMPLEXITY>
469

> <PUBCHEM_CACTVS_HBOND_ACCEPTOR>
2

> <PUBCHEM_CACTVS_HBOND_DONOR>
1

> <PUBCHEM_CACTVS_ROTATABLE_BOND>
7

> <PUBCHEM_CACTVS_SUBSKEYS>
AAADceB6IAAEEAAAAAAAAAAAAAAAAAAAAAAwYMAAAAAAAAABUAAAHgBAAAABrATBmAQyAIMAAACIAqBSAACCAAAkAAQIiAEIBOgIIDKAlRGEIQhggACIi5cYiMCOwgAAAAAAAACEAAAAAAAAAAAAAAAAAA==

> <PUBCHEM_IUPAC_OPENEYE_NAME>
[4-[4-[[allyl(methyl)amino]methyl]phenyl]phenyl]-(4-bromophenyl)methanone;hydrochloride

> <PUBCHEM_IUPAC_CAS_NAME>
(4-bromophenyl)-[4-[4-[[methyl(prop-2-enyl)amino]methyl]phenyl]phenyl]methanone;hydrochloride

> <PUBCHEM_IUPAC_NAME>
(4-bromophenyl)-[4-[4-[[methyl(prop-2-enyl)amino]methyl]phenyl]phenyl]methanone;hydrochloride

> <PUBCHEM_IUPAC_SYSTEMATIC_NAME>
(4-bromophenyl)-[4-[4-[[methyl(prop-2-enyl)amino]methyl]phenyl]phenyl]methanone;hydrochloride

> <PUBCHEM_IUPAC_TRADITIONAL_NAME>
[4-[4-[[allyl(methyl)amino]methyl]phenyl]phenyl]-(4-bromophenyl)methanone;hydrochloride

> <PUBCHEM_IUPAC_INCHI>
InChI=1S/C24H22BrNO.ClH/c1-3-16-26(2)17-18-4-6-19(7-5-18)20-8-10-21(11-9-20)24(27)22-12-14-23(25)15-13-22;/h3-15H,1,16-17H2,2H3;1H

> <PUBCHEM_IUPAC_INCHIKEY>
MCMDJJBPNGLKKM-UHFFFAOYSA-N

> <PUBCHEM_EXACT_MASS>
455.065154

> <PUBCHEM_MOLECULAR_FORMULA>
C24H23BrClNO

> <PUBCHEM_MOLECULAR_WEIGHT>
456.80252

> <PUBCHEM_OPENEYE_CAN_SMILES>
CN(CC=C)CC1=CC=C(C=C1)C2=CC=C(C=C2)C(=O)C3=CC=C(C=C3)Br.Cl

> <PUBCHEM_OPENEYE_ISO_SMILES>
CN(CC=C)CC1=CC=C(C=C1)C2=CC=C(C=C2)C(=O)C3=CC=C(C=C3)Br.Cl

> <PUBCHEM_CACTVS_TPSA>
20.3

> <PUBCHEM_MONOISOTOPIC_WEIGHT>
455.065154

> <PUBCHEM_TOTAL_CHARGE>
0

> <PUBCHEM_HEAVY_ATOM_COUNT>
28

> <PUBCHEM_ATOM_DEF_STEREO_COUNT>
0

> <PUBCHEM_ATOM_UDEF_STEREO_COUNT>
0

> <PUBCHEM_BOND_DEF_STEREO_COUNT>
0

> <PUBCHEM_BOND_UDEF_STEREO_COUNT>
0

> <PUBCHEM_ISOTOPIC_ATOM_COUNT>
0

> <PUBCHEM_COMPONENT_COUNT>
2

> <PUBCHEM_CACTVS_TAUTO_COUNT>
1

> <PUBCHEM_COORDINATE_TYPE>
1 __ 5 __ 255

> <PUBCHEM_BONDANNOTATIONS>
10  12  8 __ 15  18  8 __ 16  19  8 __ 17  18  8 __ 17  19  8 __ 22  23  8 __ 22  24  8 __ 23  26  8 __ 24  27  8 __ 26  28  8 __ 27  28  8 __ 6  10  8 __ 6  9  8 __ 7  11  8 __ 7  12  8 __ 8  15  8 __ 8  16  8 __ 9  11  8 __ 

$$$$
