44571035
ChemmineR-0425141737XD

 51 53  0     0  0  0  0  0  0999 V2000
   12.8491    3.3034    0.0000 Br   0  0  0  0  0  0  0  0  0  0  0  0
   11.6065   -2.1081    0.0000 S    0  0  0  0  0  0  0  0  0  0  0  0
    8.0622   -2.3034    0.0000 O    0  0  0  0  0  0  0  0  0  0  0  0
    2.8660    0.6966    0.0000 O    0  0  0  0  0  0  0  0  0  0  0  0
    2.8660   -3.3034    0.0000 O    0  0  0  0  0  0  0  0  0  0  0  0
    3.7320   -1.8034    0.0000 N    0  0  0  0  0  0  0  0  0  0  0  0
   12.1901   -1.3034    0.0000 N    0  0  0  0  0  0  0  0  0  0  0  0
    5.4641   -1.8034    0.0000 C    0  0  0  0  0  0  0  0  0  0  0  0
    4.5981   -2.3034    0.0000 C    0  0  0  0  0  0  0  0  0  0  0  0
    6.3301   -2.3034    0.0000 C    0  0  0  0  0  0  0  0  0  0  0  0
    7.1962   -1.8034    0.0000 C    0  0  0  0  0  0  0  0  0  0  0  0
    3.7320   -0.8034    0.0000 C    0  0  0  0  0  0  0  0  0  0  0  0
    2.8660   -2.3034    0.0000 C    0  0  0  0  0  0  0  0  0  0  0  0
    2.8660   -0.3034    0.0000 C    0  0  0  0  0  0  0  0  0  0  0  0
    8.9282   -1.8034    0.0000 C    0  0  0  0  0  0  0  0  0  0  0  0
   10.6603   -0.8034    0.0000 C    0  0  0  0  0  0  0  0  0  0  0  0
   10.6603   -1.8034    0.0000 C    0  0  0  0  0  0  0  0  0  0  0  0
    9.7942   -2.3034    0.0000 C    0  0  0  0  0  0  0  0  0  0  0  0
   11.6065   -0.4987    0.0000 C    0  0  0  0  0  0  0  0  0  0  0  0
    8.9282   -0.8034    0.0000 C    0  0  0  0  0  0  0  0  0  0  0  0
    9.7942   -0.3034    0.0000 C    0  0  0  0  0  0  0  0  0  0  0  0
    2.0000   -1.8034    0.0000 C    0  0  0  0  0  0  0  0  0  0  0  0
   11.9171    0.4518    0.0000 C    0  0  0  0  0  0  0  0  0  0  0  0
   12.8956    0.6581    0.0000 C    0  0  0  0  0  0  0  0  0  0  0  0
   11.2493    1.1962    0.0000 C    0  0  0  0  0  0  0  0  0  0  0  0
   13.2063    1.6086    0.0000 C    0  0  0  0  0  0  0  0  0  0  0  0
   11.5600    2.1467    0.0000 C    0  0  0  0  0  0  0  0  0  0  0  0
   12.5385    2.3529    0.0000 C    0  0  0  0  0  0  0  0  0  0  0  0
    5.8626   -1.3285    0.0000 H    0  0  0  0  0  0  0  0  0  0  0  0
    5.0656   -1.3285    0.0000 H    0  0  0  0  0  0  0  0  0  0  0  0
    4.1996   -2.7784    0.0000 H    0  0  0  0  0  0  0  0  0  0  0  0
    4.9966   -2.7784    0.0000 H    0  0  0  0  0  0  0  0  0  0  0  0
    5.9316   -2.7784    0.0000 H    0  0  0  0  0  0  0  0  0  0  0  0
    6.7287   -2.7784    0.0000 H    0  0  0  0  0  0  0  0  0  0  0  0
    7.5947   -1.3285    0.0000 H    0  0  0  0  0  0  0  0  0  0  0  0
    6.7976   -1.3285    0.0000 H    0  0  0  0  0  0  0  0  0  0  0  0
    4.3426   -0.9111    0.0000 H    0  0  0  0  0  0  0  0  0  0  0  0
    3.9441   -0.2208    0.0000 H    0  0  0  0  0  0  0  0  0  0  0  0
    2.2554   -0.1957    0.0000 H    0  0  0  0  0  0  0  0  0  0  0  0
    2.6540   -0.8860    0.0000 H    0  0  0  0  0  0  0  0  0  0  0  0
    9.7942   -2.9234    0.0000 H    0  0  0  0  0  0  0  0  0  0  0  0
    8.3913   -0.4934    0.0000 H    0  0  0  0  0  0  0  0  0  0  0  0
    9.7942    0.3166    0.0000 H    0  0  0  0  0  0  0  0  0  0  0  0
    2.3100   -1.2665    0.0000 H    0  0  0  0  0  0  0  0  0  0  0  0
    1.4631   -1.4934    0.0000 H    0  0  0  0  0  0  0  0  0  0  0  0
    1.6900   -2.3403    0.0000 H    0  0  0  0  0  0  0  0  0  0  0  0
   13.3097    0.1966    0.0000 H    0  0  0  0  0  0  0  0  0  0  0  0
   10.6426    1.0683    0.0000 H    0  0  0  0  0  0  0  0  0  0  0  0
    2.3291    1.0066    0.0000 H    0  0  0  0  0  0  0  0  0  0  0  0
   13.8130    1.7364    0.0000 H    0  0  0  0  0  0  0  0  0  0  0  0
   11.1459    2.6081    0.0000 H    0  0  0  0  0  0  0  0  0  0  0  0
  1 28  1  0  0  0  0
  2  7  1  0  0  0  0
  2 17  1  0  0  0  0
  3 11  1  0  0  0  0
  3 15  1  0  0  0  0
  4 14  1  0  0  0  0
  4 49  1  0  0  0  0
  5 13  2  0  0  0  0
  6  9  1  0  0  0  0
  6 12  1  0  0  0  0
  6 13  1  0  0  0  0
  7 19  2  0  0  0  0
  8  9  1  0  0  0  0
  8 10  1  0  0  0  0
  8 29  1  0  0  0  0
  8 30  1  0  0  0  0
  9 31  1  0  0  0  0
  9 32  1  0  0  0  0
 10 11  1  0  0  0  0
 10 33  1  0  0  0  0
 10 34  1  0  0  0  0
 11 35  1  0  0  0  0
 11 36  1  0  0  0  0
 12 14  1  0  0  0  0
 12 37  1  0  0  0  0
 12 38  1  0  0  0  0
 13 22  1  0  0  0  0
 14 39  1  0  0  0  0
 14 40  1  0  0  0  0
 15 18  2  0  0  0  0
 15 20  1  0  0  0  0
 16 17  2  0  0  0  0
 16 19  1  0  0  0  0
 16 21  1  0  0  0  0
 17 18  1  0  0  0  0
 18 41  1  0  0  0  0
 19 23  1  0  0  0  0
 20 21  2  0  0  0  0
 20 42  1  0  0  0  0
 21 43  1  0  0  0  0
 22 44  1  0  0  0  0
 22 45  1  0  0  0  0
 22 46  1  0  0  0  0
 23 24  2  0  0  0  0
 23 25  1  0  0  0  0
 24 26  1  0  0  0  0
 24 47  1  0  0  0  0
 25 27  2  0  0  0  0
 25 48  1  0  0  0  0
 26 28  2  0  0  0  0
 26 50  1  0  0  0  0
 27 28  1  0  0  0  0
 27 51  1  0  0  0  0
M  END
> <PUBCHEM_COMPOUND_CID>
44571035

> <PUBCHEM_COMPOUND_CANONICALIZED>
1

> <PUBCHEM_CACTVS_COMPLEXITY>
490

> <PUBCHEM_CACTVS_HBOND_ACCEPTOR>
5

> <PUBCHEM_CACTVS_HBOND_DONOR>
1

> <PUBCHEM_CACTVS_ROTATABLE_BOND>
9

> <PUBCHEM_CACTVS_SUBSKEYS>
AAADceB7MABAEAAAAAAAAAAAAAAAAWAAAAAwYAAAAAAAAFgB9AAAHgRASAABrAzh3gYyh9MABgCsAyVyUACDCBAgIARImDguTLgONqKEsZuGOCTkxhGY6hew0OEOIgAABAAEAABEAAAIAAgAAAAAAAAAAA==

> <PUBCHEM_IUPAC_OPENEYE_NAME>
N-[4-[[3-(4-bromophenyl)-1,2-benzothiazol-6-yl]oxy]butyl]-N-(2-hydroxyethyl)acetamide

> <PUBCHEM_IUPAC_CAS_NAME>
N-[4-[[3-(4-bromophenyl)-1,2-benzothiazol-6-yl]oxy]butyl]-N-(2-hydroxyethyl)acetamide

> <PUBCHEM_IUPAC_NAME>
N-[4-[[3-(4-bromophenyl)-1,2-benzothiazol-6-yl]oxy]butyl]-N-(2-hydroxyethyl)acetamide

> <PUBCHEM_IUPAC_SYSTEMATIC_NAME>
N-[4-[[3-(4-bromophenyl)-1,2-benzothiazol-6-yl]oxy]butyl]-N-(2-hydroxyethyl)ethanamide

> <PUBCHEM_IUPAC_TRADITIONAL_NAME>
N-[4-[[3-(4-bromophenyl)-1,2-benzothiazol-6-yl]oxy]butyl]-N-(2-hydroxyethyl)acetamide

> <PUBCHEM_IUPAC_INCHI>
InChI=1S/C21H23BrN2O3S/c1-15(26)24(11-12-25)10-2-3-13-27-18-8-9-19-20(14-18)28-23-21(19)16-4-6-17(22)7-5-16/h4-9,14,25H,2-3,10-13H2,1H3

> <PUBCHEM_IUPAC_INCHIKEY>
SGLOCIXOQYYXBE-UHFFFAOYSA-N

> <PUBCHEM_XLOGP3_AA>
4.2

> <PUBCHEM_EXACT_MASS>
462.061276

> <PUBCHEM_MOLECULAR_FORMULA>
C21H23BrN2O3S

> <PUBCHEM_MOLECULAR_WEIGHT>
463.38792

> <PUBCHEM_OPENEYE_CAN_SMILES>
CC(=O)N(CCCCOC1=CC2=C(C=C1)C(=NS2)C3=CC=C(C=C3)Br)CCO

> <PUBCHEM_OPENEYE_ISO_SMILES>
CC(=O)N(CCCCOC1=CC2=C(C=C1)C(=NS2)C3=CC=C(C=C3)Br)CCO

> <PUBCHEM_CACTVS_TPSA>
90.9

> <PUBCHEM_MONOISOTOPIC_WEIGHT>
462.061276

> <PUBCHEM_TOTAL_CHARGE>
0

> <PUBCHEM_HEAVY_ATOM_COUNT>
28

> <PUBCHEM_ATOM_DEF_STEREO_COUNT>
0

> <PUBCHEM_ATOM_UDEF_STEREO_COUNT>
0

> <PUBCHEM_BOND_DEF_STEREO_COUNT>
0

> <PUBCHEM_BOND_UDEF_STEREO_COUNT>
0

> <PUBCHEM_ISOTOPIC_ATOM_COUNT>
0

> <PUBCHEM_COMPONENT_COUNT>
1

> <PUBCHEM_CACTVS_TAUTO_COUNT>
1

> <PUBCHEM_COORDINATE_TYPE>
1 __ 5 __ 255

> <PUBCHEM_BONDANNOTATIONS>
15  18  8 __ 15  20  8 __ 16  17  8 __ 16  19  8 __ 16  21  8 __ 17  18  8 __ 2  17  8 __ 2  7  8 __ 20  21  8 __ 23  24  8 __ 23  25  8 __ 24  26  8 __ 25  27  8 __ 26  28  8 __ 27  28  8 __ 7  19  8 __ 

$$$$
