44571036
ChemmineR-0425141737XD

 68 68  0     1  0  0  0  0  0999 V2000
   12.1972   13.8100    0.0000 Cl   0  0  0  0  0  0  0  0  0  0  0  0
    0.0000    6.9650    0.0000 Cl   0  0  0  0  0  0  0  0  0  0  0  0
    8.7331   11.8100    0.0000 O    0  0  0  0  0  0  0  0  0  0  0  0
    9.5991   10.3100    0.0000 O    0  0  0  0  0  0  0  0  0  0  0  0
    4.4030    0.3100    0.0000 O    0  0  0  0  0  0  0  0  0  0  0  0
    7.8671   10.3100    0.0000 N    0  0  0  0  0  0  0  0  0  0  0  0
    5.2690    2.8100    0.0000 N    0  0  3  0  0  0  0  0  0  0  0  0
    7.8671    7.3100    0.0000 C    0  0  0  0  0  0  0  0  0  0  0  0
    7.8671    9.3100    0.0000 C    0  0  0  0  0  0  0  0  0  0  0  0
    8.7331    7.8100    0.0000 C    0  0  0  0  0  0  0  0  0  0  0  0
    7.0010    7.8100    0.0000 C    0  0  0  0  0  0  0  0  0  0  0  0
    8.7331    8.8100    0.0000 C    0  0  0  0  0  0  0  0  0  0  0  0
    7.0010    8.8100    0.0000 C    0  0  0  0  0  0  0  0  0  0  0  0
    7.8671    6.3100    0.0000 C    0  0  0  0  0  0  0  0  0  0  0  0
    7.0010    5.8100    0.0000 C    0  0  0  0  0  0  0  0  0  0  0  0
    7.0010    4.8100    0.0000 C    0  0  0  0  0  0  0  0  0  0  0  0
    6.1350    4.3100    0.0000 C    0  0  0  0  0  0  0  0  0  0  0  0
    7.0010   10.8100    0.0000 C    0  0  0  0  0  0  0  0  0  0  0  0
    8.7331   10.8100    0.0000 C    0  0  0  0  0  0  0  0  0  0  0  0
    6.1350    3.3100    0.0000 C    0  0  0  0  0  0  0  0  0  0  0  0
    5.2690    1.8100    0.0000 C    0  0  0  0  0  0  0  0  0  0  0  0
    4.4030    3.3100    0.0000 C    0  0  0  0  0  0  0  0  0  0  0  0
    4.4030    1.3100    0.0000 C    0  0  0  0  0  0  0  0  0  0  0  0
    9.5991   12.3100    0.0000 C    0  0  0  0  0  0  0  0  0  0  0  0
    3.5369    2.8100    0.0000 C    0  0  0  0  0  0  0  0  0  0  0  0
   10.4651   11.8100    0.0000 C    0  0  0  0  0  0  0  0  0  0  0  0
    9.5991   13.3100    0.0000 C    0  0  0  0  0  0  0  0  0  0  0  0
   11.3312   12.3100    0.0000 C    0  0  0  0  0  0  0  0  0  0  0  0
   10.4651   13.8100    0.0000 C    0  0  0  0  0  0  0  0  0  0  0  0
   11.3312   13.3100    0.0000 C    0  0  0  0  0  0  0  0  0  0  0  0
    8.4040    7.0000    0.0000 H    0  0  0  0  0  0  0  0  0  0  0  0
    8.4040    9.6200    0.0000 H    0  0  0  0  0  0  0  0  0  0  0  0
    8.9451    7.2274    0.0000 H    0  0  0  0  0  0  0  0  0  0  0  0
    9.3437    7.9177    0.0000 H    0  0  0  0  0  0  0  0  0  0  0  0
    6.3905    7.9177    0.0000 H    0  0  0  0  0  0  0  0  0  0  0  0
    6.7890    7.2274    0.0000 H    0  0  0  0  0  0  0  0  0  0  0  0
    9.3437    8.7023    0.0000 H    0  0  0  0  0  0  0  0  0  0  0  0
    8.9451    9.3926    0.0000 H    0  0  0  0  0  0  0  0  0  0  0  0
    6.7890    9.3926    0.0000 H    0  0  0  0  0  0  0  0  0  0  0  0
    6.3905    8.7023    0.0000 H    0  0  0  0  0  0  0  0  0  0  0  0
    8.0791    5.7274    0.0000 H    0  0  0  0  0  0  0  0  0  0  0  0
    8.4776    6.4177    0.0000 H    0  0  0  0  0  0  0  0  0  0  0  0
    6.7890    6.3926    0.0000 H    0  0  0  0  0  0  0  0  0  0  0  0
    6.3905    5.7023    0.0000 H    0  0  0  0  0  0  0  0  0  0  0  0
    7.2131    4.2274    0.0000 H    0  0  0  0  0  0  0  0  0  0  0  0
    7.6116    4.9177    0.0000 H    0  0  0  0  0  0  0  0  0  0  0  0
    5.9230    4.8926    0.0000 H    0  0  0  0  0  0  0  0  0  0  0  0
    5.5244    4.2023    0.0000 H    0  0  0  0  0  0  0  0  0  0  0  0
    7.3110   11.3469    0.0000 H    0  0  0  0  0  0  0  0  0  0  0  0
    6.4641   11.1200    0.0000 H    0  0  0  0  0  0  0  0  0  0  0  0
    6.6910   10.2731    0.0000 H    0  0  0  0  0  0  0  0  0  0  0  0
    6.3471    2.7274    0.0000 H    0  0  0  0  0  0  0  0  0  0  0  0
    6.7456    3.4177    0.0000 H    0  0  0  0  0  0  0  0  0  0  0  0
    5.4810    1.2274    0.0000 H    0  0  0  0  0  0  0  0  0  0  0  0
    5.8796    1.9177    0.0000 H    0  0  0  0  0  0  0  0  0  0  0  0
    4.8015    3.7850    0.0000 H    0  0  0  0  0  0  0  0  0  0  0  0
    4.0044    3.7850    0.0000 H    0  0  0  0  0  0  0  0  0  0  0  0
    4.1909    1.8926    0.0000 H    0  0  0  0  0  0  0  0  0  0  0  0
    3.7924    1.2023    0.0000 H    0  0  0  0  0  0  0  0  0  0  0  0
    3.2269    3.3469    0.0000 H    0  0  0  0  0  0  0  0  0  0  0  0
    3.0000    2.5000    0.0000 H    0  0  0  0  0  0  0  0  0  0  0  0
    3.8469    2.2731    0.0000 H    0  0  0  0  0  0  0  0  0  0  0  0
   10.4651   11.1900    0.0000 H    0  0  0  0  0  0  0  0  0  0  0  0
    9.0622   13.6200    0.0000 H    0  0  0  0  0  0  0  0  0  0  0  0
    3.8660    0.0000    0.0000 H    0  0  0  0  0  0  0  0  0  0  0  0
   11.8681   12.0000    0.0000 H    0  0  0  0  0  0  0  0  0  0  0  0
   10.4651   14.4300    0.0000 H    0  0  0  0  0  0  0  0  0  0  0  0
    1.0000    6.9650    0.0000 H    0  0  0  0  0  0  0  0  0  0  0  0
  1 30  1  0  0  0  0
  2 68  1  0  0  0  0
  3 19  1  0  0  0  0
  3 24  1  0  0  0  0
  4 19  2  0  0  0  0
  5 23  1  0  0  0  0
  5 65  1  0  0  0  0
  6  9  1  0  0  0  0
  6 18  1  0  0  0  0
  6 19  1  0  0  0  0
  7 20  1  0  0  0  0
  7 21  1  0  0  0  0
  7 22  1  0  0  0  0
  8 10  1  0  0  0  0
  8 11  1  0  0  0  0
  8 14  1  0  0  0  0
  8 31  1  0  0  0  0
  9 12  1  0  0  0  0
  9 13  1  0  0  0  0
  9 32  1  0  0  0  0
 10 12  1  0  0  0  0
 10 33  1  0  0  0  0
 10 34  1  0  0  0  0
 11 13  1  0  0  0  0
 11 35  1  0  0  0  0
 11 36  1  0  0  0  0
 12 37  1  0  0  0  0
 12 38  1  0  0  0  0
 13 39  1  0  0  0  0
 13 40  1  0  0  0  0
 14 15  1  0  0  0  0
 14 41  1  0  0  0  0
 14 42  1  0  0  0  0
 15 16  1  0  0  0  0
 15 43  1  0  0  0  0
 15 44  1  0  0  0  0
 16 17  1  0  0  0  0
 16 45  1  0  0  0  0
 16 46  1  0  0  0  0
 17 20  1  0  0  0  0
 17 47  1  0  0  0  0
 17 48  1  0  0  0  0
 18 49  1  0  0  0  0
 18 50  1  0  0  0  0
 18 51  1  0  0  0  0
 20 52  1  0  0  0  0
 20 53  1  0  0  0  0
 21 23  1  0  0  0  0
 21 54  1  0  0  0  0
 21 55  1  0  0  0  0
 22 25  1  0  0  0  0
 22 56  1  0  0  0  0
 22 57  1  0  0  0  0
 23 58  1  0  0  0  0
 23 59  1  0  0  0  0
 24 26  2  0  0  0  0
 24 27  1  0  0  0  0
 25 60  1  0  0  0  0
 25 61  1  0  0  0  0
 25 62  1  0  0  0  0
 26 28  1  0  0  0  0
 26 63  1  0  0  0  0
 27 29  2  0  0  0  0
 27 64  1  0  0  0  0
 28 30  2  0  0  0  0
 28 66  1  0  0  0  0
 29 30  1  0  0  0  0
 29 67  1  0  0  0  0
M  END
> <PUBCHEM_COMPOUND_CID>
44571036

> <PUBCHEM_COMPOUND_CANONICALIZED>
1

> <PUBCHEM_CACTVS_COMPLEXITY>
449

> <PUBCHEM_CACTVS_HBOND_ACCEPTOR>
4

> <PUBCHEM_CACTVS_HBOND_DONOR>
2

> <PUBCHEM_CACTVS_ROTATABLE_BOND>
12

> <PUBCHEM_CACTVS_SUBSKEYS>
AAADcfB7MAAGAAAAAAAAAAAAAAAAAAAAAAAwYAAAAAAAAAABAAAAHgIACAAADS7hkCYyDoMABgCIACBCGAACCAAgJQAIiAAOCogONiKFsxqMMiAkxhGYqAeQwMAOACAAAAAAAAAQQAAAAAAAAAAAAAAAAA==

> <PUBCHEM_IUPAC_OPENEYE_NAME>
(4-chlorophenyl) N-[4-[5-[ethyl(2-hydroxyethyl)amino]pentyl]cyclohexyl]-N-methyl-carbamate;hydrochloride

> <PUBCHEM_IUPAC_CAS_NAME>
N-[4-[5-[ethyl(2-hydroxyethyl)amino]pentyl]cyclohexyl]-N-methylcarbamic acid (4-chlorophenyl) ester;hydrochloride

> <PUBCHEM_IUPAC_NAME>
(4-chlorophenyl) N-[4-[5-[ethyl(2-hydroxyethyl)amino]pentyl]cyclohexyl]-N-methylcarbamate;hydrochloride

> <PUBCHEM_IUPAC_SYSTEMATIC_NAME>
(4-chlorophenyl) N-[4-[5-[ethyl(2-hydroxyethyl)amino]pentyl]cyclohexyl]-N-methyl-carbamate;hydrochloride

> <PUBCHEM_IUPAC_TRADITIONAL_NAME>
N-[4-[5-[ethyl(2-hydroxyethyl)amino]pentyl]cyclohexyl]-N-methyl-carbamic acid (4-chlorophenyl) ester;hydrochloride

> <PUBCHEM_IUPAC_INCHI>
InChI=1S/C23H37ClN2O3.ClH/c1-3-26(17-18-27)16-6-4-5-7-19-8-12-21(13-9-19)25(2)23(28)29-22-14-10-20(24)11-15-22;/h10-11,14-15,19,21,27H,3-9,12-13,16-18H2,1-2H3;1H

> <PUBCHEM_IUPAC_INCHIKEY>
YYBJFXVPOLZSBP-UHFFFAOYSA-N

> <PUBCHEM_EXACT_MASS>
460.225948

> <PUBCHEM_MOLECULAR_FORMULA>
C23H38Cl2N2O3

> <PUBCHEM_MOLECULAR_WEIGHT>
461.46542

> <PUBCHEM_OPENEYE_CAN_SMILES>
CCN(CCCCCC1CCC(CC1)N(C)C(=O)OC2=CC=C(C=C2)Cl)CCO.Cl

> <PUBCHEM_OPENEYE_ISO_SMILES>
CCN(CCCCCC1CCC(CC1)N(C)C(=O)OC2=CC=C(C=C2)Cl)CCO.Cl

> <PUBCHEM_CACTVS_TPSA>
53

> <PUBCHEM_MONOISOTOPIC_WEIGHT>
460.225948

> <PUBCHEM_TOTAL_CHARGE>
0

> <PUBCHEM_HEAVY_ATOM_COUNT>
30

> <PUBCHEM_ATOM_DEF_STEREO_COUNT>
0

> <PUBCHEM_ATOM_UDEF_STEREO_COUNT>
0

> <PUBCHEM_BOND_DEF_STEREO_COUNT>
0

> <PUBCHEM_BOND_UDEF_STEREO_COUNT>
0

> <PUBCHEM_ISOTOPIC_ATOM_COUNT>
0

> <PUBCHEM_COMPONENT_COUNT>
2

> <PUBCHEM_CACTVS_TAUTO_COUNT>
1

> <PUBCHEM_COORDINATE_TYPE>
1 __ 5 __ 255

> <PUBCHEM_BONDANNOTATIONS>
24  26  8 __ 24  27  8 __ 26  28  8 __ 27  29  8 __ 28  30  8 __ 29  30  8 __ 

$$$$
