44570901
ChemmineR-0425141737XD

 60 61  0     1  0  0  0  0  0999 V2000
   12.2521    6.2268    0.0000 Br   0  0  0  0  0  0  0  0  0  0  0  0
   11.0094    0.8153    0.0000 O    0  0  0  0  0  0  0  0  0  0  0  0
    7.4651    0.6200    0.0000 O    0  0  0  0  0  0  0  0  0  0  0  0
    8.7730    9.7255    0.0000 O    0  0  0  0  0  0  0  0  0  0  0  0
    4.4429    9.2255    0.0000 O    0  0  0  0  0  0  0  0  0  0  0  0
    7.9070    8.2255    0.0000 O    0  0  0  0  0  0  0  0  0  0  0  0
    5.3089   10.7255    0.0000 O    0  0  0  0  0  0  0  0  0  0  0  0
    3.1350    1.1200    0.0000 N    0  0  3  0  0  0  0  0  0  0  0  0
   10.0632    2.1200    0.0000 C    0  0  0  0  0  0  0  0  0  0  0  0
   11.0094    2.4247    0.0000 C    0  0  0  0  0  0  0  0  0  0  0  0
   10.0632    1.1200    0.0000 C    0  0  0  0  0  0  0  0  0  0  0  0
   11.3201    3.3752    0.0000 C    0  0  0  0  0  0  0  0  0  0  0  0
    9.1972    2.6200    0.0000 C    0  0  0  0  0  0  0  0  0  0  0  0
    9.1972    0.6200    0.0000 C    0  0  0  0  0  0  0  0  0  0  0  0
    8.3312    1.1200    0.0000 C    0  0  0  0  0  0  0  0  0  0  0  0
   11.5930    1.6200    0.0000 C    0  0  0  0  0  0  0  0  0  0  0  0
    8.3312    2.1200    0.0000 C    0  0  0  0  0  0  0  0  0  0  0  0
    4.0010    0.6200    0.0000 C    0  0  0  0  0  0  0  0  0  0  0  0
   12.2986    3.5815    0.0000 C    0  0  0  0  0  0  0  0  0  0  0  0
   10.6523    4.1196    0.0000 C    0  0  0  0  0  0  0  0  0  0  0  0
    6.5991    1.1200    0.0000 C    0  0  0  0  0  0  0  0  0  0  0  0
    2.2690    0.6200    0.0000 C    0  0  0  0  0  0  0  0  0  0  0  0
    4.8671    1.1200    0.0000 C    0  0  0  0  0  0  0  0  0  0  0  0
    5.7331    0.6200    0.0000 C    0  0  0  0  0  0  0  0  0  0  0  0
    3.1350    2.1200    0.0000 C    0  0  0  0  0  0  0  0  0  0  0  0
   12.6093    4.5320    0.0000 C    0  0  0  0  0  0  0  0  0  0  0  0
   10.9629    5.0701    0.0000 C    0  0  0  0  0  0  0  0  0  0  0  0
   11.9414    5.2763    0.0000 C    0  0  0  0  0  0  0  0  0  0  0  0
    1.4030    1.1200    0.0000 C    0  0  0  0  0  0  0  0  0  0  0  0
    0.5369    0.6200    0.0000 C    0  0  0  0  0  0  0  0  0  0  0  0
    6.1750    9.2255    0.0000 C    0  0  0  0  0  0  0  0  0  0  0  0
    7.0410    9.7255    0.0000 C    0  0  0  0  0  0  0  0  0  0  0  0
    5.3089    9.7255    0.0000 C    0  0  0  0  0  0  0  0  0  0  0  0
    7.9070    9.2255    0.0000 C    0  0  0  0  0  0  0  0  0  0  0  0
    9.1972    3.2400    0.0000 H    0  0  0  0  0  0  0  0  0  0  0  0
    9.1972    0.0000    0.0000 H    0  0  0  0  0  0  0  0  0  0  0  0
   12.2130    1.6200    0.0000 H    0  0  0  0  0  0  0  0  0  0  0  0
    7.7942    2.4300    0.0000 H    0  0  0  0  0  0  0  0  0  0  0  0
    3.6025    0.1451    0.0000 H    0  0  0  0  0  0  0  0  0  0  0  0
    4.3996    0.1451    0.0000 H    0  0  0  0  0  0  0  0  0  0  0  0
   12.7127    3.1200    0.0000 H    0  0  0  0  0  0  0  0  0  0  0  0
   10.0456    3.9917    0.0000 H    0  0  0  0  0  0  0  0  0  0  0  0
    6.9976    1.5950    0.0000 H    0  0  0  0  0  0  0  0  0  0  0  0
    6.2006    1.5950    0.0000 H    0  0  0  0  0  0  0  0  0  0  0  0
    1.8705    0.1451    0.0000 H    0  0  0  0  0  0  0  0  0  0  0  0
    2.6675    0.1451    0.0000 H    0  0  0  0  0  0  0  0  0  0  0  0
    4.8671    1.7400    0.0000 H    0  0  0  0  0  0  0  0  0  0  0  0
    5.7331    0.0000    0.0000 H    0  0  0  0  0  0  0  0  0  0  0  0
    3.7550    2.1200    0.0000 H    0  0  0  0  0  0  0  0  0  0  0  0
    3.1350    2.7400    0.0000 H    0  0  0  0  0  0  0  0  0  0  0  0
    2.5150    2.1200    0.0000 H    0  0  0  0  0  0  0  0  0  0  0  0
   13.2159    4.6598    0.0000 H    0  0  0  0  0  0  0  0  0  0  0  0
   10.5489    5.5315    0.0000 H    0  0  0  0  0  0  0  0  0  0  0  0
    1.4030    1.7400    0.0000 H    0  0  0  0  0  0  0  0  0  0  0  0
    0.0000    0.9300    0.0000 H    0  0  0  0  0  0  0  0  0  0  0  0
    0.5369    0.0000    0.0000 H    0  0  0  0  0  0  0  0  0  0  0  0
    6.1750    8.6055    0.0000 H    0  0  0  0  0  0  0  0  0  0  0  0
    7.0410   10.3455    0.0000 H    0  0  0  0  0  0  0  0  0  0  0  0
    9.3100    9.4155    0.0000 H    0  0  0  0  0  0  0  0  0  0  0  0
    3.9060    9.5355    0.0000 H    0  0  0  0  0  0  0  0  0  0  0  0
  1 28  1  0  0  0  0
  2 11  1  0  0  0  0
  2 16  1  0  0  0  0
  3 15  1  0  0  0  0
  3 21  1  0  0  0  0
  4 34  1  0  0  0  0
  4 59  1  0  0  0  0
  5 33  1  0  0  0  0
  5 60  1  0  0  0  0
  6 34  2  0  0  0  0
  7 33  2  0  0  0  0
  8 18  1  0  0  0  0
  8 22  1  0  0  0  0
  8 25  1  0  0  0  0
  9 10  1  0  0  0  0
  9 11  2  0  0  0  0
  9 13  1  0  0  0  0
 10 12  1  0  0  0  0
 10 16  2  0  0  0  0
 11 14  1  0  0  0  0
 12 19  2  0  0  0  0
 12 20  1  0  0  0  0
 13 17  2  0  0  0  0
 13 35  1  0  0  0  0
 14 15  2  0  0  0  0
 14 36  1  0  0  0  0
 15 17  1  0  0  0  0
 16 37  1  0  0  0  0
 17 38  1  0  0  0  0
 18 23  1  0  0  0  0
 18 39  1  0  0  0  0
 18 40  1  0  0  0  0
 19 26  1  0  0  0  0
 19 41  1  0  0  0  0
 20 27  2  0  0  0  0
 20 42  1  0  0  0  0
 21 24  1  0  0  0  0
 21 43  1  0  0  0  0
 21 44  1  0  0  0  0
 22 29  1  0  0  0  0
 22 45  1  0  0  0  0
 22 46  1  0  0  0  0
 23 24  2  0  0  0  0
 23 47  1  0  0  0  0
 24 48  1  0  0  0  0
 25 49  1  0  0  0  0
 25 50  1  0  0  0  0
 25 51  1  0  0  0  0
 26 28  2  0  0  0  0
 26 52  1  0  0  0  0
 27 28  1  0  0  0  0
 27 53  1  0  0  0  0
 29 30  2  0  0  0  0
 29 54  1  0  0  0  0
 30 55  1  0  0  0  0
 30 56  1  0  0  0  0
 31 32  2  0  0  0  0
 31 33  1  0  0  0  0
 31 57  1  0  0  0  0
 32 34  1  0  0  0  0
 32 58  1  0  0  0  0
M  END
> <PUBCHEM_COMPOUND_CID>
44570901

> <PUBCHEM_COMPOUND_CANONICALIZED>
1

> <PUBCHEM_CACTVS_COMPLEXITY>
580

> <PUBCHEM_CACTVS_HBOND_ACCEPTOR>
7

> <PUBCHEM_CACTVS_HBOND_DONOR>
2

> <PUBCHEM_CACTVS_ROTATABLE_BOND>
10

> <PUBCHEM_CACTVS_SUBSKEYS>
AAADceB6OAAAEAAAAAAAAAAAAAAAASAAAAAwYAAAAAAAAEgB9AAAHgBACAABrAThmAYyDsMABkCIAqjSiACCCAAkIAQIiAEOCOgMJzaENRqCOWCl4BWIu5eI7PzOogAACAAIAABEAAAQABAAAAAAAAAAAA==

> <PUBCHEM_IUPAC_OPENEYE_NAME>
(E)-N-allyl-4-[3-(4-bromophenyl)benzofuran-6-yl]oxy-N-methyl-but-2-en-1-amine;fumaric acid

> <PUBCHEM_IUPAC_CAS_NAME>
(E)-4-[[3-(4-bromophenyl)-6-benzofuranyl]oxy]-N-methyl-N-prop-2-enyl-2-buten-1-amine;(E)-2-butenedioic acid

> <PUBCHEM_IUPAC_NAME>
(E)-4-[[3-(4-bromophenyl)-1-benzofuran-6-yl]oxy]-N-methyl-N-prop-2-enylbut-2-en-1-amine;(E)-but-2-enedioic acid

> <PUBCHEM_IUPAC_SYSTEMATIC_NAME>
(E)-4-[[3-(4-bromophenyl)-1-benzofuran-6-yl]oxy]-N-methyl-N-prop-2-enyl-but-2-en-1-amine;(E)-but-2-enedioic acid

> <PUBCHEM_IUPAC_TRADITIONAL_NAME>
allyl-[(E)-4-[3-(4-bromophenyl)benzofuran-6-yl]oxybut-2-enyl]-methyl-amine;fumaric acid

> <PUBCHEM_IUPAC_INCHI>
InChI=1S/C22H22BrNO2.C4H4O4/c1-3-12-24(2)13-4-5-14-25-19-10-11-20-21(16-26-22(20)15-19)17-6-8-18(23)9-7-17;5-3(6)1-2-4(7)8/h3-11,15-16H,1,12-14H2,2H3;1-2H,(H,5,6)(H,7,8)/b5-4+;2-1+

> <PUBCHEM_IUPAC_INCHIKEY>
SMELXZLWDUMFEA-FREMDOHUSA-N

> <PUBCHEM_EXACT_MASS>
527.09435

> <PUBCHEM_MOLECULAR_FORMULA>
C26H26BrNO6

> <PUBCHEM_MOLECULAR_WEIGHT>
528.39174

> <PUBCHEM_OPENEYE_CAN_SMILES>
CN(CC=C)CC=CCOC1=CC2=C(C=C1)C(=CO2)C3=CC=C(C=C3)Br.C(=CC(=O)O)C(=O)O

> <PUBCHEM_OPENEYE_ISO_SMILES>
CN(CC=C)C/C=C/COC1=CC2=C(C=C1)C(=CO2)C3=CC=C(C=C3)Br.C(=C/C(=O)O)\C(=O)O

> <PUBCHEM_CACTVS_TPSA>
100

> <PUBCHEM_MONOISOTOPIC_WEIGHT>
527.09435

> <PUBCHEM_TOTAL_CHARGE>
0

> <PUBCHEM_HEAVY_ATOM_COUNT>
34

> <PUBCHEM_ATOM_DEF_STEREO_COUNT>
0

> <PUBCHEM_ATOM_UDEF_STEREO_COUNT>
0

> <PUBCHEM_BOND_DEF_STEREO_COUNT>
2

> <PUBCHEM_BOND_UDEF_STEREO_COUNT>
0

> <PUBCHEM_ISOTOPIC_ATOM_COUNT>
0

> <PUBCHEM_COMPONENT_COUNT>
2

> <PUBCHEM_CACTVS_TAUTO_COUNT>
1

> <PUBCHEM_COORDINATE_TYPE>
1 __ 5 __ 255

> <PUBCHEM_BONDANNOTATIONS>
10  16  8 __ 11  14  8 __ 12  19  8 __ 12  20  8 __ 13  17  8 __ 14  15  8 __ 15  17  8 __ 19  26  8 __ 2  11  8 __ 2  16  8 __ 20  27  8 __ 26  28  8 __ 27  28  8 __ 9  10  8 __ 9  11  8 __ 9  13  8 __ 

$$$$
