44582154
ChemmineR-0425141737XD

 40 43  0     1  0  0  0  0  0999 V2000
    7.6726   -3.4360    0.0000 O   0  0  0  0  0  0  0  0  0  0  0  0
    2.0000    4.1266    0.0000 O   0  0  0  0  0  0  0  0  0  0  0  0
    6.4103   -2.1781    0.0000 N   0  0  0  0  0  0  0  0  0  0  0  0
    6.4103   -0.5686    0.0000 N   0  0  0  0  0  0  0  0  0  0  0  0
    4.5981   -2.3734    0.0000 N   0  0  0  0  0  0  0  0  0  0  0  0
    4.5981    0.6266    0.0000 N   0  0  0  0  0  0  0  0  0  0  0  0
    3.7320   -0.8734    0.0000 N   0  0  0  0  0  0  0  0  0  0  0  0
    6.7210   -3.1286    0.0000 C   0  0  3  0  0  0  0  0  0  0  0  0
    6.1346   -3.9386    0.0000 C   0  0  0  0  0  0  0  0  0  0  0  0
    6.7238   -4.7466    0.0000 C   0  0  0  0  0  0  0  0  0  0  0  0
    7.6743   -4.4360    0.0000 C   0  0  0  0  0  0  0  0  0  0  0  0
    5.4641   -1.8734    0.0000 C   0  0  0  0  0  0  0  0  0  0  0  0
    6.9939   -1.3734    0.0000 C   0  0  0  0  0  0  0  0  0  0  0  0
    5.4641   -0.8734    0.0000 C   0  0  0  0  0  0  0  0  0  0  0  0
    4.5981   -0.3734    0.0000 C   0  0  0  0  0  0  0  0  0  0  0  0
    3.7320    1.1266    0.0000 C   0  0  0  0  0  0  0  0  0  0  0  0
    3.7320   -1.8734    0.0000 C   0  0  0  0  0  0  0  0  0  0  0  0
    3.7320    2.1266    0.0000 C   0  0  0  0  0  0  0  0  0  0  0  0
    2.8660    2.6266    0.0000 C   0  0  0  0  0  0  0  0  0  0  0  0
    4.5981    2.6266    0.0000 C   0  0  0  0  0  0  0  0  0  0  0  0
    2.8660    3.6266    0.0000 C   0  0  0  0  0  0  0  0  0  0  0  0
    4.5981    3.6266    0.0000 C   0  0  0  0  0  0  0  0  0  0  0  0
    3.7320    4.1266    0.0000 C   0  0  0  0  0  0  0  0  0  0  0  0
    6.1085   -3.0327    0.0000 H   0  0  0  0  0  0  0  0  0  0  0  0
    5.6731   -3.5246    0.0000 H   0  0  0  0  0  0  0  0  0  0  0  0
    5.6746   -4.3543    0.0000 H   0  0  0  0  0  0  0  0  0  0  0  0
    6.1874   -5.0576    0.0000 H   0  0  0  0  0  0  0  0  0  0  0  0
    6.9769   -5.3126    0.0000 H   0  0  0  0  0  0  0  0  0  0  0  0
    7.8043   -5.0422    0.0000 H   0  0  0  0  0  0  0  0  0  0  0  0
    8.2908   -4.3701    0.0000 H   0  0  0  0  0  0  0  0  0  0  0  0
    7.6139   -1.3734    0.0000 H   0  0  0  0  0  0  0  0  0  0  0  0
    5.1350    0.9366    0.0000 H   0  0  0  0  0  0  0  0  0  0  0  0
    3.1215    1.2343    0.0000 H   0  0  0  0  0  0  0  0  0  0  0  0
    3.5200    0.5440    0.0000 H   0  0  0  0  0  0  0  0  0  0  0  0
    3.1951   -2.1834    0.0000 H   0  0  0  0  0  0  0  0  0  0  0  0
    2.3291    2.3166    0.0000 H   0  0  0  0  0  0  0  0  0  0  0  0
    5.1350    2.3166    0.0000 H   0  0  0  0  0  0  0  0  0  0  0  0
    5.1350    3.9366    0.0000 H   0  0  0  0  0  0  0  0  0  0  0  0
    3.7320    4.7466    0.0000 H   0  0  0  0  0  0  0  0  0  0  0  0
    2.0000    4.7466    0.0000 H   0  0  0  0  0  0  0  0  0  0  0  0
  1  8  1  0  0  0  0
  1 11  1  0  0  0  0
  2 21  1  0  0  0  0
  2 40  1  0  0  0  0
  3  8  1  0  0  0  0
  3 12  1  0  0  0  0
  3 13  1  0  0  0  0
  4 13  2  0  0  0  0
  4 14  1  0  0  0  0
  5 12  2  0  0  0  0
  5 17  1  0  0  0  0
  6 15  1  0  0  0  0
  6 16  1  0  0  0  0
  6 32  1  0  0  0  0
  7 15  1  0  0  0  0
  7 17  2  0  0  0  0
  8  9  1  0  0  0  0
  8 24  1  0  0  0  0
  9 10  1  0  0  0  0
  9 25  1  0  0  0  0
  9 26  1  0  0  0  0
 10 11  1  0  0  0  0
 10 27  1  0  0  0  0
 10 28  1  0  0  0  0
 11 29  1  0  0  0  0
 11 30  1  0  0  0  0
 12 14  1  0  0  0  0
 13 31  1  0  0  0  0
 14 15  2  0  0  0  0
 16 18  1  0  0  0  0
 16 33  1  0  0  0  0
 16 34  1  0  0  0  0
 17 35  1  0  0  0  0
 18 19  2  0  0  0  0
 18 20  1  0  0  0  0
 19 21  1  0  0  0  0
 19 36  1  0  0  0  0
 20 22  2  0  0  0  0
 20 37  1  0  0  0  0
 21 23  2  0  0  0  0
 22 23  1  0  0  0  0
 22 38  1  0  0  0  0
 23 39  1  0  0  0  0
M  END
> <PUBCHEM_COMPOUND_CID>
44582154

> <PUBCHEM_COMPOUND_CANONICALIZED>
1

> <PUBCHEM_CACTVS_COMPLEXITY>
399

> <PUBCHEM_CACTVS_HBOND_ACCEPTOR>
6

> <PUBCHEM_CACTVS_HBOND_DONOR>
2

> <PUBCHEM_CACTVS_ROTATABLE_BOND>
4

> <PUBCHEM_CACTVS_SUBSKEYS>
AAADceB7sAAAAAAAAAAAAAAAAAAAAWJAAAA8QAAAAAAAAFgB/AAAHgAQCAAADAzhnwY19r/MFgCgAyZjZACCgC0xMKAJ2KAuXJiIbiLC2VOedAhswBPImCewwBAOAAABAAAAAAAAAAIAAAAAAAAAAAAAAA==

> <PUBCHEM_IUPAC_OPENEYE_NAME>
3-[[(9-tetrahydrofuran-2-ylpurin-6-yl)amino]methyl]phenol

> <PUBCHEM_IUPAC_CAS_NAME>
3-[[[9-(2-oxolanyl)-6-purinyl]amino]methyl]phenol

> <PUBCHEM_IUPAC_NAME>
3-[[[9-(oxolan-2-yl)purin-6-yl]amino]methyl]phenol

> <PUBCHEM_IUPAC_SYSTEMATIC_NAME>
3-[[[9-(oxolan-2-yl)purin-6-yl]amino]methyl]phenol

> <PUBCHEM_IUPAC_TRADITIONAL_NAME>
3-[[[9-(tetrahydrofuryl)purin-6-yl]amino]methyl]phenol

> <PUBCHEM_IUPAC_INCHI>
InChI=1S/C16H17N5O2/c22-12-4-1-3-11(7-12)8-17-15-14-16(19-9-18-15)21(10-20-14)13-5-2-6-23-13/h1,3-4,7,9-10,13,22H,2,5-6,8H2,(H,17,18,19)

> <PUBCHEM_IUPAC_INCHIKEY>
MNVLWJDPBMIJCW-UHFFFAOYSA-N

> <PUBCHEM_XLOGP3_AA>
1.9

> <PUBCHEM_EXACT_MASS>
311.138225

> <PUBCHEM_MOLECULAR_FORMULA>
C16H17N5O2

> <PUBCHEM_MOLECULAR_WEIGHT>
311.33848

> <PUBCHEM_OPENEYE_CAN_SMILES>
C1CC(OC1)N2C=NC3=C2N=CN=C3NCC4=CC(=CC=C4)O

> <PUBCHEM_OPENEYE_ISO_SMILES>
C1CC(OC1)N2C=NC3=C2N=CN=C3NCC4=CC(=CC=C4)O

> <PUBCHEM_CACTVS_TPSA>
85.1

> <PUBCHEM_MONOISOTOPIC_WEIGHT>
311.138225

> <PUBCHEM_TOTAL_CHARGE>
0

> <PUBCHEM_HEAVY_ATOM_COUNT>
23

> <PUBCHEM_ATOM_DEF_STEREO_COUNT>
0

> <PUBCHEM_ATOM_UDEF_STEREO_COUNT>
1

> <PUBCHEM_BOND_DEF_STEREO_COUNT>
0

> <PUBCHEM_BOND_UDEF_STEREO_COUNT>
0

> <PUBCHEM_ISOTOPIC_ATOM_COUNT>
0

> <PUBCHEM_COMPONENT_COUNT>
1

> <PUBCHEM_CACTVS_TAUTO_COUNT>
9

> <PUBCHEM_COORDINATE_TYPE>
1 __ 5 __ 255

> <PUBCHEM_BONDANNOTATIONS>
12  14  8 __ 14  15  8 __ 18  19  8 __ 18  20  8 __ 19  21  8 __ 20  22  8 __ 21  23  8 __ 22  23  8 __ 3  12  8 __ 3  13  8 __ 8  3  3 __ 4  13  8 __ 4  14  8 __ 5  12  8 __ 5  17  8 __ 7  15  8 __ 7  17  8 __ 

$$$$
