501398
ChemmineR-0425141737XD

 48 51  0     0  0  0  0  0  0999 V2000
    2.0000   -4.6012    0.0000 Cl   0  0  0  0  0  0  0  0  0  0  0  0
    6.3301   -3.1012    0.0000 O    0  0  0  0  0  0  0  0  0  0  0  0
    9.0327    4.3933    0.0000 O    0  0  0  0  0  0  0  0  0  0  0  0
    5.4641   -1.6012    0.0000 N    0  0  0  0  0  0  0  0  0  0  0  0
    9.8418    2.9920    0.0000 N    0  0  0  0  0  0  0  0  0  0  0  0
    6.3301   -0.1012    0.0000 C    0  0  0  0  0  0  0  0  0  0  0  0
    4.5981   -0.1012    0.0000 C    0  0  0  0  0  0  0  0  0  0  0  0
    4.5981   -1.1012    0.0000 C    0  0  0  0  0  0  0  0  0  0  0  0
    6.3301   -1.1012    0.0000 C    0  0  0  0  0  0  0  0  0  0  0  0
    5.4641    0.3988    0.0000 C    0  0  0  0  0  0  0  0  0  0  0  0
    5.4641    1.3988    0.0000 C    0  0  0  0  0  0  0  0  0  0  0  0
    5.4641   -2.6012    0.0000 C    0  0  0  0  0  0  0  0  0  0  0  0
    6.3301    1.8988    0.0000 C    0  0  0  0  0  0  0  0  0  0  0  0
    4.5981   -3.1012    0.0000 C    0  0  0  0  0  0  0  0  0  0  0  0
    7.1962    1.3988    0.0000 C    0  0  0  0  0  0  0  0  0  0  0  0
    6.3301    2.8988    0.0000 C    0  0  0  0  0  0  0  0  0  0  0  0
    8.0622    2.8988    0.0000 C    0  0  0  0  0  0  0  0  0  0  0  0
    8.0622    1.8988    0.0000 C    0  0  0  0  0  0  0  0  0  0  0  0
    7.1962    3.3988    0.0000 C    0  0  0  0  0  0  0  0  0  0  0  0
    3.7320   -2.6012    0.0000 C    0  0  0  0  0  0  0  0  0  0  0  0
    4.5981   -4.1012    0.0000 C    0  0  0  0  0  0  0  0  0  0  0  0
    8.9282    3.3988    0.0000 C    0  0  0  0  0  0  0  0  0  0  0  0
   10.0109    4.6012    0.0000 C    0  0  0  0  0  0  0  0  0  0  0  0
   10.5109    3.7352    0.0000 C    0  0  0  0  0  0  0  0  0  0  0  0
    2.8660   -3.1012    0.0000 C    0  0  0  0  0  0  0  0  0  0  0  0
    3.7320   -4.6012    0.0000 C    0  0  0  0  0  0  0  0  0  0  0  0
    2.8660   -4.1012    0.0000 C    0  0  0  0  0  0  0  0  0  0  0  0
    4.3860    0.4814    0.0000 H    0  0  0  0  0  0  0  0  0  0  0  0
    3.9875   -0.2089    0.0000 H    0  0  0  0  0  0  0  0  0  0  0  0
    6.9407   -0.2089    0.0000 H    0  0  0  0  0  0  0  0  0  0  0  0
    6.5422    0.4814    0.0000 H    0  0  0  0  0  0  0  0  0  0  0  0
    3.9875   -0.9936    0.0000 H    0  0  0  0  0  0  0  0  0  0  0  0
    4.3860   -1.6838    0.0000 H    0  0  0  0  0  0  0  0  0  0  0  0
    6.5422   -1.6838    0.0000 H    0  0  0  0  0  0  0  0  0  0  0  0
    6.9407   -0.9936    0.0000 H    0  0  0  0  0  0  0  0  0  0  0  0
    4.9272    1.7088    0.0000 H    0  0  0  0  0  0  0  0  0  0  0  0
    7.1962    0.7788    0.0000 H    0  0  0  0  0  0  0  0  0  0  0  0
    5.7932    3.2088    0.0000 H    0  0  0  0  0  0  0  0  0  0  0  0
    8.5991    1.5888    0.0000 H    0  0  0  0  0  0  0  0  0  0  0  0
    7.1962    4.0188    0.0000 H    0  0  0  0  0  0  0  0  0  0  0  0
    3.7320   -1.9812    0.0000 H    0  0  0  0  0  0  0  0  0  0  0  0
    5.1350   -4.4112    0.0000 H    0  0  0  0  0  0  0  0  0  0  0  0
   10.5773    4.8534    0.0000 H    0  0  0  0  0  0  0  0  0  0  0  0
    9.8193    5.1909    0.0000 H    0  0  0  0  0  0  0  0  0  0  0  0
   10.9257    3.2744    0.0000 H    0  0  0  0  0  0  0  0  0  0  0  0
   11.0125    4.0996    0.0000 H    0  0  0  0  0  0  0  0  0  0  0  0
    2.3291   -2.7912    0.0000 H    0  0  0  0  0  0  0  0  0  0  0  0
    3.7320   -5.2212    0.0000 H    0  0  0  0  0  0  0  0  0  0  0  0
  1 27  1  0  0  0  0
  2 12  2  0  0  0  0
  3 22  1  0  0  0  0
  3 23  1  0  0  0  0
  4  8  1  0  0  0  0
  4  9  1  0  0  0  0
  4 12  1  0  0  0  0
  5 22  2  0  0  0  0
  5 24  1  0  0  0  0
  6  9  1  0  0  0  0
  6 10  1  0  0  0  0
  6 30  1  0  0  0  0
  6 31  1  0  0  0  0
  7  8  1  0  0  0  0
  7 10  1  0  0  0  0
  7 28  1  0  0  0  0
  7 29  1  0  0  0  0
  8 32  1  0  0  0  0
  8 33  1  0  0  0  0
  9 34  1  0  0  0  0
  9 35  1  0  0  0  0
 10 11  2  0  0  0  0
 11 13  1  0  0  0  0
 11 36  1  0  0  0  0
 12 14  1  0  0  0  0
 13 15  2  0  0  0  0
 13 16  1  0  0  0  0
 14 20  2  0  0  0  0
 14 21  1  0  0  0  0
 15 18  1  0  0  0  0
 15 37  1  0  0  0  0
 16 19  2  0  0  0  0
 16 38  1  0  0  0  0
 17 18  2  0  0  0  0
 17 19  1  0  0  0  0
 17 22  1  0  0  0  0
 18 39  1  0  0  0  0
 19 40  1  0  0  0  0
 20 25  1  0  0  0  0
 20 41  1  0  0  0  0
 21 26  2  0  0  0  0
 21 42  1  0  0  0  0
 23 24  1  0  0  0  0
 23 43  1  0  0  0  0
 23 44  1  0  0  0  0
 24 45  1  0  0  0  0
 24 46  1  0  0  0  0
 25 27  2  0  0  0  0
 25 47  1  0  0  0  0
 26 27  1  0  0  0  0
 26 48  1  0  0  0  0
M  END
> <PUBCHEM_COMPOUND_CID>
501398

> <PUBCHEM_COMPOUND_CANONICALIZED>
1

> <PUBCHEM_CACTVS_COMPLEXITY>
577

> <PUBCHEM_CACTVS_HBOND_ACCEPTOR>
3

> <PUBCHEM_CACTVS_HBOND_DONOR>
0

> <PUBCHEM_CACTVS_ROTATABLE_BOND>
3

> <PUBCHEM_CACTVS_SUBSKEYS>
AAADceB7MAAEAAAAAAAAAAAAAAAAAQAAAAA8YIAAAAAAAAABQAAAHgIAAAAADALhmCYwAIMABACoAiFyFACCAAAkBQAIiAEoDtgKJrKBtxmHMQhkxgGIqYeYyDCORAAAAAAAAACIAAAAAAAAAAAAAAAAAA==

> <PUBCHEM_IUPAC_OPENEYE_NAME>
(4-chlorophenyl)-[4-[[4-(4,5-dihydrooxazol-2-yl)phenyl]methylene]-1-piperidyl]methanone

> <PUBCHEM_IUPAC_CAS_NAME>
(4-chlorophenyl)-[4-[[4-(4,5-dihydrooxazol-2-yl)phenyl]methylidene]-1-piperidinyl]methanone

> <PUBCHEM_IUPAC_NAME>
(4-chlorophenyl)-[4-[[4-(4,5-dihydro-1,3-oxazol-2-yl)phenyl]methylidene]piperidin-1-yl]methanone

> <PUBCHEM_IUPAC_SYSTEMATIC_NAME>
(4-chlorophenyl)-[4-[[4-(4,5-dihydro-1,3-oxazol-2-yl)phenyl]methylidene]piperidin-1-yl]methanone

> <PUBCHEM_IUPAC_TRADITIONAL_NAME>
(4-chlorophenyl)-[4-[4-(2-oxazolin-2-yl)benzylidene]piperidino]methanone

> <PUBCHEM_IUPAC_INCHI>
InChI=1S/C22H21ClN2O2/c23-20-7-5-19(6-8-20)22(26)25-12-9-17(10-13-25)15-16-1-3-18(4-2-16)21-24-11-14-27-21/h1-8,15H,9-14H2

> <PUBCHEM_IUPAC_INCHIKEY>
JQNWPWUJMRAASQ-UHFFFAOYSA-N

> <PUBCHEM_XLOGP3_AA>
3.8

> <PUBCHEM_EXACT_MASS>
380.129156

> <PUBCHEM_MOLECULAR_FORMULA>
C22H21ClN2O2

> <PUBCHEM_MOLECULAR_WEIGHT>
380.86734

> <PUBCHEM_OPENEYE_CAN_SMILES>
C1CN(CCC1=CC2=CC=C(C=C2)C3=NCCO3)C(=O)C4=CC=C(C=C4)Cl

> <PUBCHEM_OPENEYE_ISO_SMILES>
C1CN(CCC1=CC2=CC=C(C=C2)C3=NCCO3)C(=O)C4=CC=C(C=C4)Cl

> <PUBCHEM_CACTVS_TPSA>
41.9

> <PUBCHEM_MONOISOTOPIC_WEIGHT>
380.129156

> <PUBCHEM_TOTAL_CHARGE>
0

> <PUBCHEM_HEAVY_ATOM_COUNT>
27

> <PUBCHEM_ATOM_DEF_STEREO_COUNT>
0

> <PUBCHEM_ATOM_UDEF_STEREO_COUNT>
0

> <PUBCHEM_BOND_DEF_STEREO_COUNT>
0

> <PUBCHEM_BOND_UDEF_STEREO_COUNT>
0

> <PUBCHEM_ISOTOPIC_ATOM_COUNT>
0

> <PUBCHEM_COMPONENT_COUNT>
1

> <PUBCHEM_CACTVS_TAUTO_COUNT>
1

> <PUBCHEM_COORDINATE_TYPE>
1 __ 5 __ 255

> <PUBCHEM_BONDANNOTATIONS>
13  15  8 __ 13  16  8 __ 14  20  8 __ 14  21  8 __ 15  18  8 __ 16  19  8 __ 17  18  8 __ 17  19  8 __ 20  25  8 __ 21  26  8 __ 25  27  8 __ 26  27  8 __ 

$$$$
