57398756
ChemmineR-0425141737XD

216223  0     1  0  0  0  0  0999 V2000
   12.6095   -3.7066    0.0000 S   0  0  0  0  0  0  0  0  0  0  0  0
    5.6160   13.6517    0.0000 P   0  0  3  0  0  0  0  0  0  0  0  0
    9.5812   -6.4238    0.0000 O   0  0  0  0  0  0  0  0  0  0  0  0
   17.9087   -3.6953    0.0000 O   0  0  0  0  0  0  0  0  0  0  0  0
   24.8369   -4.6953    0.0000 O   0  0  0  0  0  0  0  0  0  0  0  0
   21.3728   -3.6953    0.0000 O   0  0  0  0  0  0  0  0  0  0  0  0
   22.2389   -0.1953    0.0000 O   0  0  0  0  0  0  0  0  0  0  0  0
   27.4350  -17.1953    0.0000 O   0  0  0  0  0  0  0  0  0  0  0  0
   28.3010  -10.6953    0.0000 O   0  0  0  0  0  0  0  0  0  0  0  0
   29.6279  -12.5820    0.0000 O   0  5  0  0  0  0  0  0  0  0  0  0
   29.9286  -14.2877    0.0000 O   0  0  0  0  0  0  0  0  0  0  0  0
   14.0235    7.5433    0.0000 O   0  0  0  0  0  0  0  0  0  0  0  0
   15.6058    8.2478    0.0000 O   0  0  0  0  0  0  0  0  0  0  0  0
   12.2155    9.4749    0.0000 O   0  0  0  0  0  0  0  0  0  0  0  0
    8.0118   12.5291    0.0000 O   0  0  0  0  0  0  0  0  0  0  0  0
    5.7205   14.6462    0.0000 O   0  0  0  0  0  0  0  0  0  0  0  0
    4.6215   13.7562    0.0000 O   0  0  0  0  0  0  0  0  0  0  0  0
    9.8198   10.5975    0.0000 O   0  0  0  0  0  0  0  0  0  0  0  0
    5.5115   12.6572    0.0000 O   0  0  0  0  0  0  0  0  0  0  0  0
    2.0000   17.5150    0.0000 O   0  5  0  0  0  0  0  0  0  0  0  0
    3.5823   18.2194    0.0000 O   0  0  0  0  0  0  0  0  0  0  0  0
   11.3033   -5.9656    0.0000 N   0  0  0  0  0  0  0  0  0  0  0  0
   10.2227   -4.7613    0.0000 N   0  0  0  0  0  0  0  0  0  0  0  0
   18.7748   -5.1953    0.0000 N   0  0  0  0  0  0  0  0  0  0  0  0
   23.1049   -3.6953    0.0000 N   0  0  0  0  0  0  0  0  0  0  0  0
   23.9709   -6.1953    0.0000 N   0  0  0  0  0  0  0  0  0  0  0  0
   20.5068   -0.1953    0.0000 N   0  0  0  0  0  0  0  0  0  0  0  0
   26.5690  -10.6953    0.0000 N   0  0  0  0  0  0  0  0  0  0  0  0
   17.9087    4.3047    0.0000 N   0  0  0  0  0  0  0  0  0  0  0  0
   30.9651  -17.2195    0.0000 N   0  3  0  0  0  0  0  0  0  0  0  0
   23.9049  -17.2195    0.0000 N   0  0  0  0  0  0  0  0  0  0  0  0
   16.9952    3.8980    0.0000 N   0  0  0  0  0  0  0  0  0  0  0  0
   16.3261    4.6411    0.0000 N   0  0  0  0  0  0  0  0  0  0  0  0
   15.4248    6.5252    0.0000 N   0  0  0  0  0  0  0  0  0  0  0  0
    2.9945   17.4104    0.0000 N   0  3  0  0  0  0  0  0  0  0  0  0
   11.8048   -5.1004    0.0000 C   0  0  1  0  0  0  0  0  0  0  0  0
   11.1370   -4.3561    0.0000 C   0  0  2  0  0  0  0  0  0  0  0  0
   12.7126   -4.6953    0.0000 C   0  0  2  0  0  0  0  0  0  0  0  0
   11.6377   -3.4974    0.0000 C   0  0  0  0  0  0  0  0  0  0  0  0
   13.5786   -5.1953    0.0000 C   0  0  0  0  0  0  0  0  0  0  0  0
   10.3255   -5.7560    0.0000 C   0  0  0  0  0  0  0  0  0  0  0  0
   14.4446   -4.6953    0.0000 C   0  0  0  0  0  0  0  0  0  0  0  0
   15.3107   -5.1953    0.0000 C   0  0  0  0  0  0  0  0  0  0  0  0
   16.1767   -4.6953    0.0000 C   0  0  0  0  0  0  0  0  0  0  0  0
   17.0427   -5.1953    0.0000 C   0  0  0  0  0  0  0  0  0  0  0  0
   17.9087   -4.6953    0.0000 C   0  0  0  0  0  0  0  0  0  0  0  0
   19.6408   -4.6953    0.0000 C   0  0  0  0  0  0  0  0  0  0  0  0
   20.5068   -5.1953    0.0000 C   0  0  0  0  0  0  0  0  0  0  0  0
   21.3728   -4.6953    0.0000 C   0  0  0  0  0  0  0  0  0  0  0  0
   22.2389   -5.1953    0.0000 C   0  0  0  0  0  0  0  0  0  0  0  0
   23.1049   -4.6953    0.0000 C   0  0  1  0  0  0  0  0  0  0  0  0
   23.9709   -5.1953    0.0000 C   0  0  0  0  0  0  0  0  0  0  0  0
   22.2389   -3.1953    0.0000 C   0  0  0  0  0  0  0  0  0  0  0  0
   24.8369   -6.6953    0.0000 C   0  0  0  0  0  0  0  0  0  0  0  0
   22.2389   -2.1953    0.0000 C   0  0  0  0  0  0  0  0  0  0  0  0
   24.8369   -7.6953    0.0000 C   0  0  0  0  0  0  0  0  0  0  0  0
   21.3728   -1.6953    0.0000 C   0  0  0  0  0  0  0  0  0  0  0  0
   25.7030   -8.1953    0.0000 C   0  0  0  0  0  0  0  0  0  0  0  0
   25.7030   -9.1953    0.0000 C   0  0  0  0  0  0  0  0  0  0  0  0
   21.3728   -0.6953    0.0000 C   0  0  0  0  0  0  0  0  0  0  0  0
   26.5690   -9.6953    0.0000 C   0  0  0  0  0  0  0  0  0  0  0  0
   20.5068    0.8047    0.0000 C   0  0  0  0  0  0  0  0  0  0  0  0
   19.6408    1.3047    0.0000 C   0  0  0  0  0  0  0  0  0  0  0  0
   19.6408    2.3047    0.0000 C   0  0  0  0  0  0  0  0  0  0  0  0
   27.4350  -11.1953    0.0000 C   0  0  0  0  0  0  0  0  0  0  0  0
   18.7748    2.8047    0.0000 C   0  0  0  0  0  0  0  0  0  0  0  0
   27.4350  -12.1953    0.0000 C   0  0  0  0  0  0  0  0  0  0  0  0
   27.4350  -15.1953    0.0000 C   0  0  0  0  0  0  0  0  0  0  0  0
   18.7748    3.8047    0.0000 C   0  0  0  0  0  0  0  0  0  0  0  0
   27.4350  -14.1953    0.0000 C   0  0  0  0  0  0  0  0  0  0  0  0
   28.3010  -15.6953    0.0000 C   0  0  0  0  0  0  0  0  0  0  0  0
   26.5690  -15.6953    0.0000 C   0  0  0  0  0  0  0  0  0  0  0  0
   28.3010  -13.6953    0.0000 C   0  0  0  0  0  0  0  0  0  0  0  0
   28.3010  -12.6953    0.0000 C   0  0  0  0  0  0  0  0  0  0  0  0
   26.5690  -12.6953    0.0000 C   0  0  0  0  0  0  0  0  0  0  0  0
   28.3010  -16.6953    0.0000 C   0  0  0  0  0  0  0  0  0  0  0  0
   26.5690  -16.6953    0.0000 C   0  0  0  0  0  0  0  0  0  0  0  0
   26.5690  -13.6953    0.0000 C   0  0  0  0  0  0  0  0  0  0  0  0
   29.1950  -15.1606    0.0000 C   0  0  0  0  0  0  0  0  0  0  0  0
   25.6750  -15.1606    0.0000 C   0  0  0  0  0  0  0  0  0  0  0  0
   29.1950  -17.2300    0.0000 C   0  0  0  0  0  0  0  0  0  0  0  0
   25.6750  -17.2300    0.0000 C   0  0  0  0  0  0  0  0  0  0  0  0
   30.1010  -16.7161    0.0000 C   0  0  0  0  0  0  0  0  0  0  0  0
   24.7690  -16.7161    0.0000 C   0  0  0  0  0  0  0  0  0  0  0  0
   30.1010  -15.6745    0.0000 C   0  0  0  0  0  0  0  0  0  0  0  0
   24.7690  -15.6745    0.0000 C   0  0  0  0  0  0  0  0  0  0  0  0
   29.2858  -13.5217    0.0000 C   0  0  0  0  0  0  0  0  0  0  0  0
   17.8042    5.2992    0.0000 C   0  0  0  0  0  0  0  0  0  0  0  0
   16.8261    5.5071    0.0000 C   0  0  0  0  0  0  0  0  0  0  0  0
   31.8331  -16.7228    0.0000 C   0  0  0  0  0  0  0  0  0  0  0  0
   30.9613  -18.2194    0.0000 C   0  0  0  0  0  0  0  0  0  0  0  0
   23.0369  -16.7228    0.0000 C   0  0  0  0  0  0  0  0  0  0  0  0
   23.9087  -18.2194    0.0000 C   0  0  0  0  0  0  0  0  0  0  0  0
   16.4193    6.4207    0.0000 C   0  0  0  0  0  0  0  0  0  0  0  0
   15.0181    7.4388    0.0000 C   0  0  0  0  0  0  0  0  0  0  0  0
   13.6168    8.4568    0.0000 C   0  0  0  0  0  0  0  0  0  0  0  0
   12.6223    8.5613    0.0000 C   0  0  0  0  0  0  0  0  0  0  0  0
    6.6105   13.5472    0.0000 C   0  0  0  0  0  0  0  0  0  0  0  0
    7.0172   12.6336    0.0000 C   0  0  0  0  0  0  0  0  0  0  0  0
   11.2210    9.5794    0.0000 C   0  0  0  0  0  0  0  0  0  0  0  0
   10.8143   10.4930    0.0000 C   0  0  0  0  0  0  0  0  0  0  0  0
    8.4185   11.6156    0.0000 C   0  0  0  0  0  0  0  0  0  0  0  0
    9.4130   11.5110    0.0000 C   0  0  0  0  0  0  0  0  0  0  0  0
    6.6341   15.0530    0.0000 C   0  0  0  0  0  0  0  0  0  0  0  0
    4.2147   14.6698    0.0000 C   0  0  0  0  0  0  0  0  0  0  0  0
    6.7386   16.0475    0.0000 C   0  0  0  0  0  0  0  0  0  0  0  0
    3.2202   14.7743    0.0000 C   0  0  0  0  0  0  0  0  0  0  0  0
    4.8025   15.4788    0.0000 C   0  0  0  0  0  0  0  0  0  0  0  0
    2.8135   15.6879    0.0000 C   0  0  0  0  0  0  0  0  0  0  0  0
    4.3958   16.3924    0.0000 C   0  0  0  0  0  0  0  0  0  0  0  0
    3.4013   16.4969    0.0000 C   0  0  0  0  0  0  0  0  0  0  0  0
   12.3733   -5.7323    0.0000 H   0  0  0  0  0  0  0  0  0  0  0  0
   10.5701   -3.7227    0.0000 H   0  0  0  0  0  0  0  0  0  0  0  0
   13.2327   -4.3578    0.0000 H   0  0  0  0  0  0  0  0  0  0  0  0
   11.8312   -2.9083    0.0000 H   0  0  0  0  0  0  0  0  0  0  0  0
   11.0723   -3.2431    0.0000 H   0  0  0  0  0  0  0  0  0  0  0  0
   13.1801   -5.6702    0.0000 H   0  0  0  0  0  0  0  0  0  0  0  0
   13.9771   -5.6702    0.0000 H   0  0  0  0  0  0  0  0  0  0  0  0
   11.5545   -6.5324    0.0000 H   0  0  0  0  0  0  0  0  0  0  0  0
    9.6863   -4.4503    0.0000 H   0  0  0  0  0  0  0  0  0  0  0  0
   14.8432   -4.2204    0.0000 H   0  0  0  0  0  0  0  0  0  0  0  0
   14.0461   -4.2204    0.0000 H   0  0  0  0  0  0  0  0  0  0  0  0
   14.9121   -5.6702    0.0000 H   0  0  0  0  0  0  0  0  0  0  0  0
   15.7092   -5.6702    0.0000 H   0  0  0  0  0  0  0  0  0  0  0  0
   16.5752   -4.2204    0.0000 H   0  0  0  0  0  0  0  0  0  0  0  0
   15.7782   -4.2204    0.0000 H   0  0  0  0  0  0  0  0  0  0  0  0
   16.6442   -5.6702    0.0000 H   0  0  0  0  0  0  0  0  0  0  0  0
   17.4412   -5.6702    0.0000 H   0  0  0  0  0  0  0  0  0  0  0  0
   18.7748   -5.8153    0.0000 H   0  0  0  0  0  0  0  0  0  0  0  0
   20.0393   -4.2204    0.0000 H   0  0  0  0  0  0  0  0  0  0  0  0
   19.2423   -4.2204    0.0000 H   0  0  0  0  0  0  0  0  0  0  0  0
   20.1083   -5.6702    0.0000 H   0  0  0  0  0  0  0  0  0  0  0  0
   20.9053   -5.6702    0.0000 H   0  0  0  0  0  0  0  0  0  0  0  0
   21.7714   -4.2204    0.0000 H   0  0  0  0  0  0  0  0  0  0  0  0
   20.9743   -4.2204    0.0000 H   0  0  0  0  0  0  0  0  0  0  0  0
   21.8403   -5.6702    0.0000 H   0  0  0  0  0  0  0  0  0  0  0  0
   22.6374   -5.6702    0.0000 H   0  0  0  0  0  0  0  0  0  0  0  0
   23.6418   -4.3853    0.0000 H   0  0  0  0  0  0  0  0  0  0  0  0
   23.6418   -3.3853    0.0000 H   0  0  0  0  0  0  0  0  0  0  0  0
   23.4340   -6.5053    0.0000 H   0  0  0  0  0  0  0  0  0  0  0  0
   25.4475   -6.8030    0.0000 H   0  0  0  0  0  0  0  0  0  0  0  0
   25.0490   -6.1127    0.0000 H   0  0  0  0  0  0  0  0  0  0  0  0
   22.8494   -2.3030    0.0000 H   0  0  0  0  0  0  0  0  0  0  0  0
   22.4509   -1.6127    0.0000 H   0  0  0  0  0  0  0  0  0  0  0  0
   24.2264   -7.5876    0.0000 H   0  0  0  0  0  0  0  0  0  0  0  0
   24.6249   -8.2779    0.0000 H   0  0  0  0  0  0  0  0  0  0  0  0
   20.7623   -1.5876    0.0000 H   0  0  0  0  0  0  0  0  0  0  0  0
   21.1608   -2.2779    0.0000 H   0  0  0  0  0  0  0  0  0  0  0  0
   26.3135   -8.3030    0.0000 H   0  0  0  0  0  0  0  0  0  0  0  0
   25.9150   -7.6127    0.0000 H   0  0  0  0  0  0  0  0  0  0  0  0
   25.0924   -9.0876    0.0000 H   0  0  0  0  0  0  0  0  0  0  0  0
   25.4909   -9.7779    0.0000 H   0  0  0  0  0  0  0  0  0  0  0  0
   27.1796   -9.8030    0.0000 H   0  0  0  0  0  0  0  0  0  0  0  0
   26.7810   -9.1127    0.0000 H   0  0  0  0  0  0  0  0  0  0  0  0
   19.9699   -0.5053    0.0000 H   0  0  0  0  0  0  0  0  0  0  0  0
   21.1174    0.6970    0.0000 H   0  0  0  0  0  0  0  0  0  0  0  0
   20.7189    1.3873    0.0000 H   0  0  0  0  0  0  0  0  0  0  0  0
   26.0321  -11.0053    0.0000 H   0  0  0  0  0  0  0  0  0  0  0  0
   19.0302    1.4124    0.0000 H   0  0  0  0  0  0  0  0  0  0  0  0
   19.4287    0.7221    0.0000 H   0  0  0  0  0  0  0  0  0  0  0  0
   20.2514    2.1970    0.0000 H   0  0  0  0  0  0  0  0  0  0  0  0
   19.8528    2.8873    0.0000 H   0  0  0  0  0  0  0  0  0  0  0  0
   18.1642    2.9124    0.0000 H   0  0  0  0  0  0  0  0  0  0  0  0
   18.5627    2.2221    0.0000 H   0  0  0  0  0  0  0  0  0  0  0  0
   19.3853    3.6970    0.0000 H   0  0  0  0  0  0  0  0  0  0  0  0
   18.9868    4.3873    0.0000 H   0  0  0  0  0  0  0  0  0  0  0  0
   28.8380  -12.3853    0.0000 H   0  0  0  0  0  0  0  0  0  0  0  0
   26.0321  -12.3853    0.0000 H   0  0  0  0  0  0  0  0  0  0  0  0
   26.0321  -14.0053    0.0000 H   0  0  0  0  0  0  0  0  0  0  0  0
   29.1878  -14.5407    0.0000 H   0  0  0  0  0  0  0  0  0  0  0  0
   25.6822  -14.5407    0.0000 H   0  0  0  0  0  0  0  0  0  0  0  0
   29.1878  -17.8499    0.0000 H   0  0  0  0  0  0  0  0  0  0  0  0
   25.6822  -17.8499    0.0000 H   0  0  0  0  0  0  0  0  0  0  0  0
   30.6368  -15.3624    0.0000 H   0  0  0  0  0  0  0  0  0  0  0  0
   24.2332  -15.3624    0.0000 H   0  0  0  0  0  0  0  0  0  0  0  0
   18.2650    5.7141    0.0000 H   0  0  0  0  0  0  0  0  0  0  0  0
   30.3413  -18.2171    0.0000 H   0  0  0  0  0  0  0  0  0  0  0  0
   30.9589  -18.8394    0.0000 H   0  0  0  0  0  0  0  0  0  0  0  0
   31.5813  -18.2218    0.0000 H   0  0  0  0  0  0  0  0  0  0  0  0
   32.1410  -17.2609    0.0000 H   0  0  0  0  0  0  0  0  0  0  0  0
   32.3712  -16.4149    0.0000 H   0  0  0  0  0  0  0  0  0  0  0  0
   31.5252  -16.1847    0.0000 H   0  0  0  0  0  0  0  0  0  0  0  0
   23.2887  -18.2218    0.0000 H   0  0  0  0  0  0  0  0  0  0  0  0
   23.3449  -16.1847    0.0000 H   0  0  0  0  0  0  0  0  0  0  0  0
   22.4988  -16.4149    0.0000 H   0  0  0  0  0  0  0  0  0  0  0  0
   22.7290  -17.2609    0.0000 H   0  0  0  0  0  0  0  0  0  0  0  0
   23.9111  -18.8394    0.0000 H   0  0  0  0  0  0  0  0  0  0  0  0
   24.5287  -18.2171    0.0000 H   0  0  0  0  0  0  0  0  0  0  0  0
   17.0209    6.5707    0.0000 H   0  0  0  0  0  0  0  0  0  0  0  0
   16.3761    7.0392    0.0000 H   0  0  0  0  0  0  0  0  0  0  0  0
   15.0604    6.0236    0.0000 H   0  0  0  0  0  0  0  0  0  0  0  0
   14.2184    8.6068    0.0000 H   0  0  0  0  0  0  0  0  0  0  0  0
   13.5736    9.0753    0.0000 H   0  0  0  0  0  0  0  0  0  0  0  0
   12.0207    8.4114    0.0000 H   0  0  0  0  0  0  0  0  0  0  0  0
   12.6655    7.9429    0.0000 H   0  0  0  0  0  0  0  0  0  0  0  0
    7.2121   13.6972    0.0000 H   0  0  0  0  0  0  0  0  0  0  0  0
    6.5673   14.1657    0.0000 H   0  0  0  0  0  0  0  0  0  0  0  0
    6.4157   12.4837    0.0000 H   0  0  0  0  0  0  0  0  0  0  0  0
    7.0605   12.0152    0.0000 H   0  0  0  0  0  0  0  0  0  0  0  0
   10.6194    9.4294    0.0000 H   0  0  0  0  0  0  0  0  0  0  0  0
   11.2643    8.9609    0.0000 H   0  0  0  0  0  0  0  0  0  0  0  0
   11.4159   10.6430    0.0000 H   0  0  0  0  0  0  0  0  0  0  0  0
   10.7710   11.1115    0.0000 H   0  0  0  0  0  0  0  0  0  0  0  0
    7.8169   11.4656    0.0000 H   0  0  0  0  0  0  0  0  0  0  0  0
    8.4618   10.9971    0.0000 H   0  0  0  0  0  0  0  0  0  0  0  0
   10.0146   11.6610    0.0000 H   0  0  0  0  0  0  0  0  0  0  0  0
    9.3698   12.1295    0.0000 H   0  0  0  0  0  0  0  0  0  0  0  0
    6.7841   14.4514    0.0000 H   0  0  0  0  0  0  0  0  0  0  0  0
    7.2526   15.0962    0.0000 H   0  0  0  0  0  0  0  0  0  0  0  0
    7.3552   15.9827    0.0000 H   0  0  0  0  0  0  0  0  0  0  0  0
    6.8034   16.6641    0.0000 H   0  0  0  0  0  0  0  0  0  0  0  0
    6.1220   16.1123    0.0000 H   0  0  0  0  0  0  0  0  0  0  0  0
    2.8558   14.2727    0.0000 H   0  0  0  0  0  0  0  0  0  0  0  0
    5.4191   15.4140    0.0000 H   0  0  0  0  0  0  0  0  0  0  0  0
    2.1969   15.7527    0.0000 H   0  0  0  0  0  0  0  0  0  0  0  0
    4.7602   16.8939    0.0000 H   0  0  0  0  0  0  0  0  0  0  0  0
  1 38  1  0  0  0  0
  1 39  1  0  0  0  0
  2 16  1  0  0  0  0
  2 17  1  0  0  0  0
  2 19  2  0  0  0  0
  2 98  1  0  0  0  0
  3 41  2  0  0  0  0
  4 46  2  0  0  0  0
  5 52  2  0  0  0  0
  6 53  2  0  0  0  0
  7 60  2  0  0  0  0
  8 76  1  0  0  0  0
  8 77  1  0  0  0  0
  9 65  2  0  0  0  0
 10 87  1  0  0  0  0
 11 87  2  0  0  0  0
 12 95  1  0  0  0  0
 12 96  1  0  0  0  0
 13 95  2  0  0  0  0
 14 97  1  0  0  0  0
 14100  1  0  0  0  0
 15 99  1  0  0  0  0
 15102  1  0  0  0  0
 16104  1  0  0  0  0
 17105  1  0  0  0  0
 18101  1  0  0  0  0
 18103  1  0  0  0  0
 20 35  1  0  0  0  0
 21 35  2  0  0  0  0
 22 36  1  0  0  0  0
 22 41  1  0  0  0  0
 22119  1  0  0  0  0
 23 37  1  0  0  0  0
 23 41  1  0  0  0  0
 23120  1  0  0  0  0
 24 46  1  0  0  0  0
 24 47  1  0  0  0  0
 24129  1  0  0  0  0
 51 25  1  6  0  0  0
 25 53  1  0  0  0  0
 25139  1  0  0  0  0
 26 52  1  0  0  0  0
 26 54  1  0  0  0  0
 26140  1  0  0  0  0
 27 60  1  0  0  0  0
 27 62  1  0  0  0  0
 27155  1  0  0  0  0
 28 61  1  0  0  0  0
 28 65  1  0  0  0  0
 28158  1  0  0  0  0
 29 32  1  0  0  0  0
 29 69  1  0  0  0  0
 29 88  1  0  0  0  0
 30 83  2  0  0  0  0
 30 90  1  0  0  0  0
 30 91  1  0  0  0  0
 31 84  1  0  0  0  0
 31 92  1  0  0  0  0
 31 93  1  0  0  0  0
 32 33  2  0  0  0  0
 33 89  1  0  0  0  0
 34 94  1  0  0  0  0
 34 95  1  0  0  0  0
 34191  1  0  0  0  0
 35111  1  0  0  0  0
 36 37  1  0  0  0  0
 36 38  1  0  0  0  0
 36112  1  6  0  0  0
 37 39  1  0  0  0  0
 37113  1  6  0  0  0
 38 40  1  1  0  0  0
 38114  1  0  0  0  0
 39115  1  0  0  0  0
 39116  1  0  0  0  0
 40 42  1  0  0  0  0
 40117  1  0  0  0  0
 40118  1  0  0  0  0
 42 43  1  0  0  0  0
 42121  1  0  0  0  0
 42122  1  0  0  0  0
 43 44  1  0  0  0  0
 43123  1  0  0  0  0
 43124  1  0  0  0  0
 44 45  1  0  0  0  0
 44125  1  0  0  0  0
 44126  1  0  0  0  0
 45 46  1  0  0  0  0
 45127  1  0  0  0  0
 45128  1  0  0  0  0
 47 48  1  0  0  0  0
 47130  1  0  0  0  0
 47131  1  0  0  0  0
 48 49  1  0  0  0  0
 48132  1  0  0  0  0
 48133  1  0  0  0  0
 49 50  1  0  0  0  0
 49134  1  0  0  0  0
 49135  1  0  0  0  0
 50 51  1  0  0  0  0
 50136  1  0  0  0  0
 50137  1  0  0  0  0
 51 52  1  0  0  0  0
 51138  1  0  0  0  0
 53 55  1  0  0  0  0
 54 56  1  0  0  0  0
 54141  1  0  0  0  0
 54142  1  0  0  0  0
 55 57  1  0  0  0  0
 55143  1  0  0  0  0
 55144  1  0  0  0  0
 56 58  1  0  0  0  0
 56145  1  0  0  0  0
 56146  1  0  0  0  0
 57 60  1  0  0  0  0
 57147  1  0  0  0  0
 57148  1  0  0  0  0
 58 59  1  0  0  0  0
 58149  1  0  0  0  0
 58150  1  0  0  0  0
 59 61  1  0  0  0  0
 59151  1  0  0  0  0
 59152  1  0  0  0  0
 61153  1  0  0  0  0
 61154  1  0  0  0  0
 62 63  1  0  0  0  0
 62156  1  0  0  0  0
 62157  1  0  0  0  0
 63 64  1  0  0  0  0
 63159  1  0  0  0  0
 63160  1  0  0  0  0
 64 66  1  0  0  0  0
 64161  1  0  0  0  0
 64162  1  0  0  0  0
 65 67  1  0  0  0  0
 66 69  1  0  0  0  0
 66163  1  0  0  0  0
 66164  1  0  0  0  0
 67 74  2  0  0  0  0
 67 75  1  0  0  0  0
 68 70  1  0  0  0  0
 68 71  2  0  0  0  0
 68 72  1  0  0  0  0
 69165  1  0  0  0  0
 69166  1  0  0  0  0
 70 73  2  0  0  0  0
 70 78  1  0  0  0  0
 71 76  1  0  0  0  0
 71 79  1  0  0  0  0
 72 77  2  0  0  0  0
 72 80  1  0  0  0  0
 73 74  1  0  0  0  0
 73 87  1  0  0  0  0
 74167  1  0  0  0  0
 75 78  2  0  0  0  0
 75168  1  0  0  0  0
 76 81  2  0  0  0  0
 77 82  1  0  0  0  0
 78169  1  0  0  0  0
 79 85  2  0  0  0  0
 79170  1  0  0  0  0
 80 86  2  0  0  0  0
 80171  1  0  0  0  0
 81 83  1  0  0  0  0
 81172  1  0  0  0  0
 82 84  2  0  0  0  0
 82173  1  0  0  0  0
 83 85  1  0  0  0  0
 84 86  1  0  0  0  0
 85174  1  0  0  0  0
 86175  1  0  0  0  0
 88 89  2  0  0  0  0
 88176  1  0  0  0  0
 89 94  1  0  0  0  0
 90180  1  0  0  0  0
 90181  1  0  0  0  0
 90182  1  0  0  0  0
 91177  1  0  0  0  0
 91178  1  0  0  0  0
 91179  1  0  0  0  0
 92184  1  0  0  0  0
 92185  1  0  0  0  0
 92186  1  0  0  0  0
 93183  1  0  0  0  0
 93187  1  0  0  0  0
 93188  1  0  0  0  0
 94189  1  0  0  0  0
 94190  1  0  0  0  0
 96 97  1  0  0  0  0
 96192  1  0  0  0  0
 96193  1  0  0  0  0
 97194  1  0  0  0  0
 97195  1  0  0  0  0
 98 99  1  0  0  0  0
 98196  1  0  0  0  0
 98197  1  0  0  0  0
 99198  1  0  0  0  0
 99199  1  0  0  0  0
100101  1  0  0  0  0
100200  1  0  0  0  0
100201  1  0  0  0  0
101202  1  0  0  0  0
101203  1  0  0  0  0
102103  1  0  0  0  0
102204  1  0  0  0  0
102205  1  0  0  0  0
103206  1  0  0  0  0
103207  1  0  0  0  0
104106  1  0  0  0  0
104208  1  0  0  0  0
104209  1  0  0  0  0
105107  2  0  0  0  0
105108  1  0  0  0  0
106210  1  0  0  0  0
106211  1  0  0  0  0
106212  1  0  0  0  0
107109  1  0  0  0  0
107213  1  0  0  0  0
108110  2  0  0  0  0
108214  1  0  0  0  0
109111  2  0  0  0  0
109215  1  0  0  0  0
110111  1  0  0  0  0
110216  1  0  0  0  0
M  END
> <PUBCHEM_COMPOUND_CID>
57398756

> <PUBCHEM_COMPOUND_CANONICALIZED>
1

> <PUBCHEM_CACTVS_COMPLEXITY>
3160

> <PUBCHEM_CACTVS_HBOND_ACCEPTOR>
23

> <PUBCHEM_CACTVS_HBOND_DONOR>
8

> <PUBCHEM_CACTVS_ROTATABLE_BOND>
50

> <PUBCHEM_CACTVS_SUBSKEYS>
AAADcfB//gJAAAAAAAAAAAAAAAAAAWLEgAAwYMECAAAWAACB1AAAHgwcACAADCzt3ga/zpPYRRirQzX3X4CCDAQ1shA42IG+fNuNZjLk9bueOSju1hvq6Ye93/OOyEACAgAYAACQgAQEADAAAAAAAAAAAA==

> <PUBCHEM_IUPAC_OPENEYE_NAME>
5-[5-[[(2S)-6-[6-[(3aS,4S,6aR)-2-oxo-1,3,3a,4,6,6a-hexahydrothieno[3,4-d]imidazol-4-yl]hexanoylamino]-2-[[4-[5-[4-[[2-[2-[2-[2-[ethoxy-(4-nitrophenoxy)phosphoryl]ethoxy]ethoxy]ethoxy]ethoxycarbonylamino]methyl]triazol-1-yl]pentylamino]-4-oxo-butanoyl]amino]hexanoyl]amino]pentylcarbamoyl]-2-[3-(dimethylamino)-6-dimethyliminio-xanthen-9-yl]benzoate

> <PUBCHEM_IUPAC_CAS_NAME>
5-[[5-[[(2S)-6-[[6-[(3aS,4S,6aR)-2-oxo-1,3,3a,4,6,6a-hexahydrothieno[3,4-d]imidazol-4-yl]-1-oxohexyl]amino]-2-[[4-[5-[4-[[[2-[2-[2-[2-[ethoxy-(4-nitrophenoxy)phosphoryl]ethoxy]ethoxy]ethoxy]ethoxy-oxomethyl]amino]methyl]-1-triazolyl]pentylamino]-1,4-dioxobutyl]amino]-1-oxohexyl]amino]pentylamino]-oxomethyl]-2-[3-(dimethylamino)-6-dimethyliminio-9-xanthenyl]benzoate

> <PUBCHEM_IUPAC_NAME>
5-[5-[[(2S)-6-[6-[(3aS,4S,6aR)-2-oxo-1,3,3a,4,6,6a-hexahydrothieno[3,4-d]imidazol-4-yl]hexanoylamino]-2-[[4-[5-[4-[[2-[2-[2-[2-[ethoxy-(4-nitrophenoxy)phosphoryl]ethoxy]ethoxy]ethoxy]ethoxycarbonylamino]methyl]triazol-1-yl]pentylamino]-4-oxobutanoyl]amino]hexanoyl]amino]pentylcarbamoyl]-2-[3-(dimethylamino)-6-dimethylazaniumylidenexanthen-9-yl]benzoate

> <PUBCHEM_IUPAC_SYSTEMATIC_NAME>
5-[5-[[(2S)-6-[6-[(3aS,4S,6aR)-2-oxidanylidene-1,3,3a,4,6,6a-hexahydrothieno[3,4-d]imidazol-4-yl]hexanoylamino]-2-[[4-[5-[4-[[2-[2-[2-[2-[ethoxy-(4-nitrophenoxy)phosphoryl]ethoxy]ethoxy]ethoxy]ethoxycarbonylamino]methyl]-1,2,3-triazol-1-yl]pentylamino]-4-oxidanylidene-butanoyl]amino]hexanoyl]amino]pentylcarbamoyl]-2-[3-(dimethylamino)-6-dimethylazaniumylidene-xanthen-9-yl]benzoate

> <PUBCHEM_IUPAC_TRADITIONAL_NAME>
5-[5-[[(2S)-6-[6-[(3aS,4S,6aR)-2-keto-1,3,3a,4,6,6a-hexahydrothien[3,4-d]imidazol-4-yl]hexanoylamino]-2-[[4-[5-[4-[[2-[2-[2-[2-[ethoxy-(4-nitrophenoxy)phosphoryl]ethoxy]ethoxy]ethoxy]ethoxycarbonylamino]methyl]triazol-1-yl]pentylamino]-4-keto-butanoyl]amino]hexanoyl]amino]pentylcarbamoyl]-2-[3-(dimethylamino)-6-dimethyliminio-xanthen-9-yl]benzoate

> <PUBCHEM_IUPAC_INCHI>
InChI=1S/C76H105N14O19PS/c1-6-107-110(102,109-57-26-22-54(23-27-57)90(100)101)45-44-105-41-40-103-38-39-104-42-43-106-76(99)81-49-53-50-89(86-85-53)37-17-9-15-33-78-68(92)31-32-69(93)82-62(18-12-16-34-77-67(91)20-11-7-10-19-66-71-63(51-111-66)83-75(98)84-71)73(95)80-36-14-8-13-35-79-72(94)52-21-28-58(61(46-52)74(96)97)70-59-29-24-55(87(2)3)47-64(59)108-65-48-56(88(4)5)25-30-60(65)70/h21-30,46-48,50,62-63,66,71H,6-20,31-45,49,51H2,1-5H3,(H8-,77,78,79,80,81,82,83,84,91,92,93,94,95,96,97,98,99)/t62-,63-,66-,71-,110?/m0/s1

> <PUBCHEM_IUPAC_INCHIKEY>
XQKOSIMBVSXDSN-YGBBJINDSA-N

> <PUBCHEM_XLOGP3_AA>
4.2

> <PUBCHEM_EXACT_MASS>
1580.713875

> <PUBCHEM_MOLECULAR_FORMULA>
C76H105N14O19PS

> <PUBCHEM_MOLECULAR_WEIGHT>
1581.768062

> <PUBCHEM_OPENEYE_CAN_SMILES>
CCOP(=O)(CCOCCOCCOCCOC(=O)NCC1=CN(N=N1)CCCCCNC(=O)CCC(=O)NC(CCCCNC(=O)CCCCCC2C3C(CS2)NC(=O)N3)C(=O)NCCCCCNC(=O)C4=CC(=C(C=C4)C5=C6C=CC(=[N+](C)C)C=C6OC7=C5C=CC(=C7)N(C)C)C(=O)[O-])OC8=CC=C(C=C8)[N+](=O)[O-]

> <PUBCHEM_OPENEYE_ISO_SMILES>
CCOP(=O)(CCOCCOCCOCCOC(=O)NCC1=CN(N=N1)CCCCCNC(=O)CCC(=O)N[C@@H](CCCCNC(=O)CCCCC[C@H]2[C@@H]3[C@H](CS2)NC(=O)N3)C(=O)NCCCCCNC(=O)C4=CC(=C(C=C4)C5=C6C=CC(=[N+](C)C)C=C6OC7=C5C=CC(=C7)N(C)C)C(=O)[O-])OC8=CC=C(C=C8)[N+](=O)[O-]

> <PUBCHEM_CACTVS_TPSA>
446

> <PUBCHEM_MONOISOTOPIC_WEIGHT>
1580.713875

> <PUBCHEM_TOTAL_CHARGE>
0

> <PUBCHEM_HEAVY_ATOM_COUNT>
111

> <PUBCHEM_ATOM_DEF_STEREO_COUNT>
4

> <PUBCHEM_ATOM_UDEF_STEREO_COUNT>
1

> <PUBCHEM_BOND_DEF_STEREO_COUNT>
0

> <PUBCHEM_BOND_UDEF_STEREO_COUNT>
0

> <PUBCHEM_ISOTOPIC_ATOM_COUNT>
0

> <PUBCHEM_COMPONENT_COUNT>
1

> <PUBCHEM_CACTVS_TAUTO_COUNT>
192

> <PUBCHEM_COORDINATE_TYPE>
1 __ 5 __ 255

> <PUBCHEM_BONDANNOTATIONS>
105  107  8 __ 105  108  8 __ 107  109  8 __ 108  110  8 __ 109  111  8 __ 110  111  8 __ 2  98  3 __ 51  25  6 __ 29  32  8 __ 29  88  8 __ 32  33  8 __ 33  89  8 __ 36  112  6 __ 37  113  6 __ 38  40  5 __ 67  74  8 __ 67  75  8 __ 68  71  8 __ 68  72  8 __ 70  73  8 __ 70  78  8 __ 71  79  8 __ 72  77  8 __ 72  80  8 __ 73  74  8 __ 75  78  8 __ 76  81  8 __ 77  82  8 __ 79  85  8 __ 8  76  8 __ 8  77  8 __ 80  86  8 __ 81  83  8 __ 82  84  8 __ 83  85  8 __ 84  86  8 __ 88  89  8 __ 

$$$$
