9959583
ChemmineR-0425141737XD

 67 67  0     1  0  0  0  0  0999 V2000
   15.7352   13.8100    0.0000 Br   0  0  0  0  0  0  0  0  0  0  0  0
   10.5390   10.8100    0.0000 F    0  0  0  0  0  0  0  0  0  0  0  0
   12.2711    7.8100    0.0000 O    0  0  0  0  0  0  0  0  0  0  0  0
   11.4050   12.3100    0.0000 O    0  0  0  0  0  0  0  0  0  0  0  0
    4.8671    7.4650    0.0000 O    0  0  0  0  0  0  0  0  0  0  0  0
    0.5369    6.9650    0.0000 O    0  0  0  0  0  0  0  0  0  0  0  0
    4.0010    5.9650    0.0000 O    0  0  0  0  0  0  0  0  0  0  0  0
    1.4030    8.4650    0.0000 O    0  0  0  0  0  0  0  0  0  0  0  0
    8.8070    2.8100    0.0000 N    0  0  3  0  0  0  0  0  0  0  0  0
   10.5390    4.8100    0.0000 C    0  0  0  0  0  0  0  0  0  0  0  0
    9.6730    4.3100    0.0000 C    0  0  0  0  0  0  0  0  0  0  0  0
   10.5390    5.8100    0.0000 C    0  0  0  0  0  0  0  0  0  0  0  0
    9.6730    3.3100    0.0000 C    0  0  0  0  0  0  0  0  0  0  0  0
   11.4050    6.3100    0.0000 C    0  0  0  0  0  0  0  0  0  0  0  0
   11.4050    7.3100    0.0000 C    0  0  0  0  0  0  0  0  0  0  0  0
    8.8070    1.8100    0.0000 C    0  0  0  0  0  0  0  0  0  0  0  0
    7.9409    3.3100    0.0000 C    0  0  0  0  0  0  0  0  0  0  0  0
    7.9409    1.3100    0.0000 C    0  0  0  0  0  0  0  0  0  0  0  0
   12.2711    8.8100    0.0000 C    0  0  0  0  0  0  0  0  0  0  0  0
   11.4050    9.3100    0.0000 C    0  0  0  0  0  0  0  0  0  0  0  0
   13.1371    9.3100    0.0000 C    0  0  0  0  0  0  0  0  0  0  0  0
   12.2711   10.8100    0.0000 C    0  0  0  0  0  0  0  0  0  0  0  0
   11.4050   10.3100    0.0000 C    0  0  0  0  0  0  0  0  0  0  0  0
   13.1371   10.3100    0.0000 C    0  0  0  0  0  0  0  0  0  0  0  0
    7.9409    0.3100    0.0000 C    0  0  0  0  0  0  0  0  0  0  0  0
   12.2711   11.8100    0.0000 C    0  0  0  0  0  0  0  0  0  0  0  0
   13.1371   12.3100    0.0000 C    0  0  0  0  0  0  0  0  0  0  0  0
   14.0031   11.8100    0.0000 C    0  0  0  0  0  0  0  0  0  0  0  0
   13.1371   13.3100    0.0000 C    0  0  0  0  0  0  0  0  0  0  0  0
   14.8691   12.3100    0.0000 C    0  0  0  0  0  0  0  0  0  0  0  0
   14.0031   13.8100    0.0000 C    0  0  0  0  0  0  0  0  0  0  0  0
   14.8691   13.3100    0.0000 C    0  0  0  0  0  0  0  0  0  0  0  0
    2.2690    6.9650    0.0000 C    0  0  0  0  0  0  0  0  0  0  0  0
    3.1350    7.4650    0.0000 C    0  0  0  0  0  0  0  0  0  0  0  0
    1.4030    7.4650    0.0000 C    0  0  0  0  0  0  0  0  0  0  0  0
    4.0010    6.9650    0.0000 C    0  0  0  0  0  0  0  0  0  0  0  0
   10.7511    4.2274    0.0000 H    0  0  0  0  0  0  0  0  0  0  0  0
   11.1496    4.9177    0.0000 H    0  0  0  0  0  0  0  0  0  0  0  0
    9.4609    4.8926    0.0000 H    0  0  0  0  0  0  0  0  0  0  0  0
    9.0624    4.2023    0.0000 H    0  0  0  0  0  0  0  0  0  0  0  0
   10.3270    6.3926    0.0000 H    0  0  0  0  0  0  0  0  0  0  0  0
    9.9284    5.7023    0.0000 H    0  0  0  0  0  0  0  0  0  0  0  0
    9.8850    2.7274    0.0000 H    0  0  0  0  0  0  0  0  0  0  0  0
   10.2836    3.4177    0.0000 H    0  0  0  0  0  0  0  0  0  0  0  0
   11.6171    5.7274    0.0000 H    0  0  0  0  0  0  0  0  0  0  0  0
   12.0156    6.4177    0.0000 H    0  0  0  0  0  0  0  0  0  0  0  0
   11.1930    7.8926    0.0000 H    0  0  0  0  0  0  0  0  0  0  0  0
   10.7945    7.2023    0.0000 H    0  0  0  0  0  0  0  0  0  0  0  0
    9.0190    1.2274    0.0000 H    0  0  0  0  0  0  0  0  0  0  0  0
    9.4175    1.9177    0.0000 H    0  0  0  0  0  0  0  0  0  0  0  0
    8.2509    3.8469    0.0000 H    0  0  0  0  0  0  0  0  0  0  0  0
    7.4040    3.6200    0.0000 H    0  0  0  0  0  0  0  0  0  0  0  0
    7.6309    2.7731    0.0000 H    0  0  0  0  0  0  0  0  0  0  0  0
    7.4040    1.6200    0.0000 H    0  0  0  0  0  0  0  0  0  0  0  0
   10.8681    9.0000    0.0000 H    0  0  0  0  0  0  0  0  0  0  0  0
   13.6740    9.0000    0.0000 H    0  0  0  0  0  0  0  0  0  0  0  0
   13.6740   10.6200    0.0000 H    0  0  0  0  0  0  0  0  0  0  0  0
    7.4040    0.0000    0.0000 H    0  0  0  0  0  0  0  0  0  0  0  0
    8.4779    0.0000    0.0000 H    0  0  0  0  0  0  0  0  0  0  0  0
   14.0031   11.1900    0.0000 H    0  0  0  0  0  0  0  0  0  0  0  0
   12.6002   13.6200    0.0000 H    0  0  0  0  0  0  0  0  0  0  0  0
   15.4061   12.0000    0.0000 H    0  0  0  0  0  0  0  0  0  0  0  0
   14.0031   14.4300    0.0000 H    0  0  0  0  0  0  0  0  0  0  0  0
    2.2690    6.3450    0.0000 H    0  0  0  0  0  0  0  0  0  0  0  0
    3.1350    8.0850    0.0000 H    0  0  0  0  0  0  0  0  0  0  0  0
    5.4040    7.1550    0.0000 H    0  0  0  0  0  0  0  0  0  0  0  0
    0.0000    7.2750    0.0000 H    0  0  0  0  0  0  0  0  0  0  0  0
  1 32  1  0  0  0  0
  2 23  1  0  0  0  0
  3 15  1  0  0  0  0
  3 19  1  0  0  0  0
  4 26  2  0  0  0  0
  5 36  1  0  0  0  0
  5 66  1  0  0  0  0
  6 35  1  0  0  0  0
  6 67  1  0  0  0  0
  7 36  2  0  0  0  0
  8 35  2  0  0  0  0
  9 13  1  0  0  0  0
  9 16  1  0  0  0  0
  9 17  1  0  0  0  0
 10 11  1  0  0  0  0
 10 12  1  0  0  0  0
 10 37  1  0  0  0  0
 10 38  1  0  0  0  0
 11 13  1  0  0  0  0
 11 39  1  0  0  0  0
 11 40  1  0  0  0  0
 12 14  1  0  0  0  0
 12 41  1  0  0  0  0
 12 42  1  0  0  0  0
 13 43  1  0  0  0  0
 13 44  1  0  0  0  0
 14 15  1  0  0  0  0
 14 45  1  0  0  0  0
 14 46  1  0  0  0  0
 15 47  1  0  0  0  0
 15 48  1  0  0  0  0
 16 18  1  0  0  0  0
 16 49  1  0  0  0  0
 16 50  1  0  0  0  0
 17 51  1  0  0  0  0
 17 52  1  0  0  0  0
 17 53  1  0  0  0  0
 18 25  2  0  0  0  0
 18 54  1  0  0  0  0
 19 20  2  0  0  0  0
 19 21  1  0  0  0  0
 20 23  1  0  0  0  0
 20 55  1  0  0  0  0
 21 24  2  0  0  0  0
 21 56  1  0  0  0  0
 22 23  2  0  0  0  0
 22 24  1  0  0  0  0
 22 26  1  0  0  0  0
 24 57  1  0  0  0  0
 25 58  1  0  0  0  0
 25 59  1  0  0  0  0
 26 27  1  0  0  0  0
 27 28  2  0  0  0  0
 27 29  1  0  0  0  0
 28 30  1  0  0  0  0
 28 60  1  0  0  0  0
 29 31  2  0  0  0  0
 29 61  1  0  0  0  0
 30 32  2  0  0  0  0
 30 62  1  0  0  0  0
 31 32  1  0  0  0  0
 31 63  1  0  0  0  0
 33 34  2  0  0  0  0
 33 35  1  0  0  0  0
 33 64  1  0  0  0  0
 34 36  1  0  0  0  0
 34 65  1  0  0  0  0
M  END
> <PUBCHEM_COMPOUND_CID>
9959583

> <PUBCHEM_COMPOUND_CANONICALIZED>
1

> <PUBCHEM_CACTVS_COMPLEXITY>
587

> <PUBCHEM_CACTVS_HBOND_ACCEPTOR>
8

> <PUBCHEM_CACTVS_HBOND_DONOR>
2

> <PUBCHEM_CACTVS_ROTATABLE_BOND>
14

> <PUBCHEM_CACTVS_SUBSKEYS>
AAADceB6OQAAEAAAAAAAAAAAAAAAAAAAAAAwYAAAAAAAAAABQAAAHwBACAABrAThmA4yDoMABgCIAqDSCACCCAAkIAQIiAEOCOgMJjKEtRqGOSCkwBGIu5eYzODOIgAAAAAAAABEAAAAAAAAAAAAAAAAAA==

> <PUBCHEM_IUPAC_OPENEYE_NAME>
[4-[6-[allyl(methyl)amino]hexoxy]-2-fluoro-phenyl]-(4-bromophenyl)methanone;fumaric acid

> <PUBCHEM_IUPAC_CAS_NAME>
(4-bromophenyl)-[2-fluoro-4-[6-[methyl(prop-2-enyl)amino]hexoxy]phenyl]methanone;(E)-2-butenedioic acid

> <PUBCHEM_IUPAC_NAME>
(4-bromophenyl)-[2-fluoro-4-[6-[methyl(prop-2-enyl)amino]hexoxy]phenyl]methanone;(E)-but-2-enedioic acid

> <PUBCHEM_IUPAC_SYSTEMATIC_NAME>
(4-bromophenyl)-[2-fluoranyl-4-[6-[methyl(prop-2-enyl)amino]hexoxy]phenyl]methanone;(E)-but-2-enedioic acid

> <PUBCHEM_IUPAC_TRADITIONAL_NAME>
[4-[6-[allyl(methyl)amino]hexoxy]-2-fluoro-phenyl]-(4-bromophenyl)methanone;fumaric acid

> <PUBCHEM_IUPAC_INCHI>
InChI=1S/C23H27BrFNO2.C4H4O4/c1-3-14-26(2)15-6-4-5-7-16-28-20-12-13-21(22(25)17-20)23(27)18-8-10-19(24)11-9-18;5-3(6)1-2-4(7)8/h3,8-13,17H,1,4-7,14-16H2,2H3;1-2H,(H,5,6)(H,7,8)/b;2-1+

> <PUBCHEM_IUPAC_INCHIKEY>
XCYAYLWZCRGKDS-WLHGVMLRSA-N

> <PUBCHEM_EXACT_MASS>
563.131878

> <PUBCHEM_MOLECULAR_FORMULA>
C27H31BrFNO6

> <PUBCHEM_MOLECULAR_WEIGHT>
564.440543

> <PUBCHEM_OPENEYE_CAN_SMILES>
CN(CCCCCCOC1=CC(=C(C=C1)C(=O)C2=CC=C(C=C2)Br)F)CC=C.C(=CC(=O)O)C(=O)O

> <PUBCHEM_OPENEYE_ISO_SMILES>
CN(CCCCCCOC1=CC(=C(C=C1)C(=O)C2=CC=C(C=C2)Br)F)CC=C.C(=C/C(=O)O)\C(=O)O

> <PUBCHEM_CACTVS_TPSA>
104

> <PUBCHEM_MONOISOTOPIC_WEIGHT>
563.131878

> <PUBCHEM_TOTAL_CHARGE>
0

> <PUBCHEM_HEAVY_ATOM_COUNT>
36

> <PUBCHEM_ATOM_DEF_STEREO_COUNT>
0

> <PUBCHEM_ATOM_UDEF_STEREO_COUNT>
0

> <PUBCHEM_BOND_DEF_STEREO_COUNT>
1

> <PUBCHEM_BOND_UDEF_STEREO_COUNT>
0

> <PUBCHEM_ISOTOPIC_ATOM_COUNT>
0

> <PUBCHEM_COMPONENT_COUNT>
2

> <PUBCHEM_CACTVS_TAUTO_COUNT>
1

> <PUBCHEM_COORDINATE_TYPE>
1 __ 5 __ 255

> <PUBCHEM_BONDANNOTATIONS>
19  20  8 __ 19  21  8 __ 20  23  8 __ 21  24  8 __ 22  23  8 __ 22  24  8 __ 27  28  8 __ 27  29  8 __ 28  30  8 __ 29  31  8 __ 30  32  8 __ 31  32  8 __ 

$$$$
